* NGSPICE file created from counter.ext - technology: sky130A

.subckt sky130_fd_sc_hd__decap_6 VPWR VGND VPB VNB
X0 VPWR VGND VPWR VPB sky130_fd_pr__pfet_01v8_hvt ad=0.226 pd=2.26 as=0 ps=0 w=0.87 l=1.97
X1 VGND VPWR VGND VNB sky130_fd_pr__nfet_01v8 ad=0.143 pd=1.62 as=0 ps=0 w=0.55 l=1.97
.ends

.subckt sky130_ef_sc_hd__decap_12 VGND VPWR VPB VNB
X0 VPWR VGND VPWR VPB sky130_fd_pr__pfet_01v8_hvt ad=0.226 pd=2.26 as=0 ps=0 w=0.87 l=4.73
X1 VGND VPWR VGND VNB sky130_fd_pr__nfet_01v8 ad=0.143 pd=1.62 as=0 ps=0 w=0.55 l=4.73
.ends

.subckt sky130_fd_sc_hd__decap_4 VGND VPWR VPB VNB
X0 VPWR VGND VPWR VPB sky130_fd_pr__pfet_01v8_hvt ad=0.226 pd=2.26 as=0 ps=0 w=0.87 l=1.05
X1 VGND VPWR VGND VNB sky130_fd_pr__nfet_01v8 ad=0.143 pd=1.62 as=0 ps=0 w=0.55 l=1.05
.ends

.subckt sky130_fd_sc_hd__decap_3 VPWR VGND VPB VNB
X0 VPWR VGND VPWR VPB sky130_fd_pr__pfet_01v8_hvt ad=0.226 pd=2.26 as=0 ps=0 w=0.87 l=0.59
X1 VGND VPWR VGND VNB sky130_fd_pr__nfet_01v8 ad=0.143 pd=1.62 as=0 ps=0 w=0.55 l=0.59
.ends

.subckt sky130_fd_sc_hd__decap_8 VPWR VGND VPB VNB
X0 VPWR VGND VPWR VPB sky130_fd_pr__pfet_01v8_hvt ad=0.226 pd=2.26 as=0 ps=0 w=0.87 l=2.89
X1 VGND VPWR VGND VNB sky130_fd_pr__nfet_01v8 ad=0.143 pd=1.62 as=0 ps=0 w=0.55 l=2.89
.ends

.subckt sky130_fd_sc_hd__clkbuf_16 VNB VPB VGND VPWR A X
X0 VPWR A a_110_47# VPB sky130_fd_pr__pfet_01v8_hvt ad=0.14 pd=1.28 as=0.14 ps=1.28 w=1 l=0.15
X1 VPWR a_110_47# X VPB sky130_fd_pr__pfet_01v8_hvt ad=0.14 pd=1.28 as=0.14 ps=1.28 w=1 l=0.15
X2 X a_110_47# VPWR VPB sky130_fd_pr__pfet_01v8_hvt ad=0.14 pd=1.28 as=0.14 ps=1.28 w=1 l=0.15
X3 X a_110_47# VPWR VPB sky130_fd_pr__pfet_01v8_hvt ad=0.14 pd=1.28 as=0.14 ps=1.28 w=1 l=0.15
X4 VPWR a_110_47# X VPB sky130_fd_pr__pfet_01v8_hvt ad=0.14 pd=1.28 as=0.14 ps=1.28 w=1 l=0.15
X5 VPWR a_110_47# X VPB sky130_fd_pr__pfet_01v8_hvt ad=0.265 pd=2.53 as=0.14 ps=1.28 w=1 l=0.15
X6 a_110_47# A VPWR VPB sky130_fd_pr__pfet_01v8_hvt ad=0.14 pd=1.28 as=0.265 ps=2.53 w=1 l=0.15
X7 a_110_47# A VGND VNB sky130_fd_pr__nfet_01v8 ad=0.0588 pd=0.7 as=0.0588 ps=0.7 w=0.42 l=0.15
X8 VGND a_110_47# X VNB sky130_fd_pr__nfet_01v8 ad=0.0588 pd=0.7 as=0.0588 ps=0.7 w=0.42 l=0.15
X9 X a_110_47# VGND VNB sky130_fd_pr__nfet_01v8 ad=0.0588 pd=0.7 as=0.0588 ps=0.7 w=0.42 l=0.15
X10 VGND a_110_47# X VNB sky130_fd_pr__nfet_01v8 ad=0.0588 pd=0.7 as=0.0588 ps=0.7 w=0.42 l=0.15
X11 a_110_47# A VPWR VPB sky130_fd_pr__pfet_01v8_hvt ad=0.14 pd=1.28 as=0.14 ps=1.28 w=1 l=0.15
X12 VGND A a_110_47# VNB sky130_fd_pr__nfet_01v8 ad=0.0588 pd=0.7 as=0.0588 ps=0.7 w=0.42 l=0.15
X13 VGND a_110_47# X VNB sky130_fd_pr__nfet_01v8 ad=0.0578 pd=0.695 as=0.0588 ps=0.7 w=0.42 l=0.15
X14 VPWR a_110_47# X VPB sky130_fd_pr__pfet_01v8_hvt ad=0.14 pd=1.28 as=0.14 ps=1.28 w=1 l=0.15
X15 X a_110_47# VPWR VPB sky130_fd_pr__pfet_01v8_hvt ad=0.14 pd=1.28 as=0.14 ps=1.28 w=1 l=0.15
X16 VGND A a_110_47# VNB sky130_fd_pr__nfet_01v8 ad=0.0588 pd=0.7 as=0.0588 ps=0.7 w=0.42 l=0.15
X17 VGND a_110_47# X VNB sky130_fd_pr__nfet_01v8 ad=0.111 pd=1.37 as=0.0588 ps=0.7 w=0.42 l=0.15
X18 VPWR a_110_47# X VPB sky130_fd_pr__pfet_01v8_hvt ad=0.138 pd=1.27 as=0.14 ps=1.28 w=1 l=0.15
X19 VGND a_110_47# X VNB sky130_fd_pr__nfet_01v8 ad=0.0588 pd=0.7 as=0.0588 ps=0.7 w=0.42 l=0.15
X20 X a_110_47# VPWR VPB sky130_fd_pr__pfet_01v8_hvt ad=0.14 pd=1.28 as=0.138 ps=1.27 w=1 l=0.15
X21 a_110_47# A VGND VNB sky130_fd_pr__nfet_01v8 ad=0.0588 pd=0.7 as=0.111 ps=1.37 w=0.42 l=0.15
X22 VPWR A a_110_47# VPB sky130_fd_pr__pfet_01v8_hvt ad=0.14 pd=1.28 as=0.14 ps=1.28 w=1 l=0.15
X23 VPWR a_110_47# X VPB sky130_fd_pr__pfet_01v8_hvt ad=0.14 pd=1.28 as=0.14 ps=1.28 w=1 l=0.15
X24 VPWR a_110_47# X VPB sky130_fd_pr__pfet_01v8_hvt ad=0.14 pd=1.28 as=0.14 ps=1.28 w=1 l=0.15
X25 VGND a_110_47# X VNB sky130_fd_pr__nfet_01v8 ad=0.0588 pd=0.7 as=0.0588 ps=0.7 w=0.42 l=0.15
X26 X a_110_47# VPWR VPB sky130_fd_pr__pfet_01v8_hvt ad=0.14 pd=1.28 as=0.14 ps=1.28 w=1 l=0.15
X27 VGND a_110_47# X VNB sky130_fd_pr__nfet_01v8 ad=0.0588 pd=0.7 as=0.0588 ps=0.7 w=0.42 l=0.15
X28 VGND a_110_47# X VNB sky130_fd_pr__nfet_01v8 ad=0.0588 pd=0.7 as=0.0588 ps=0.7 w=0.42 l=0.15
X29 X a_110_47# VGND VNB sky130_fd_pr__nfet_01v8 ad=0.0588 pd=0.7 as=0.0588 ps=0.7 w=0.42 l=0.15
X30 X a_110_47# VPWR VPB sky130_fd_pr__pfet_01v8_hvt ad=0.14 pd=1.28 as=0.14 ps=1.28 w=1 l=0.15
X31 X a_110_47# VPWR VPB sky130_fd_pr__pfet_01v8_hvt ad=0.14 pd=1.28 as=0.14 ps=1.28 w=1 l=0.15
X32 X a_110_47# VGND VNB sky130_fd_pr__nfet_01v8 ad=0.0588 pd=0.7 as=0.0588 ps=0.7 w=0.42 l=0.15
X33 VPWR a_110_47# X VPB sky130_fd_pr__pfet_01v8_hvt ad=0.14 pd=1.28 as=0.14 ps=1.28 w=1 l=0.15
X34 X a_110_47# VPWR VPB sky130_fd_pr__pfet_01v8_hvt ad=0.14 pd=1.28 as=0.14 ps=1.28 w=1 l=0.15
X35 X a_110_47# VGND VNB sky130_fd_pr__nfet_01v8 ad=0.0588 pd=0.7 as=0.0588 ps=0.7 w=0.42 l=0.15
X36 X a_110_47# VGND VNB sky130_fd_pr__nfet_01v8 ad=0.0588 pd=0.7 as=0.0588 ps=0.7 w=0.42 l=0.15
X37 X a_110_47# VGND VNB sky130_fd_pr__nfet_01v8 ad=0.0588 pd=0.7 as=0.0588 ps=0.7 w=0.42 l=0.15
X38 X a_110_47# VGND VNB sky130_fd_pr__nfet_01v8 ad=0.0588 pd=0.7 as=0.0588 ps=0.7 w=0.42 l=0.15
X39 X a_110_47# VGND VNB sky130_fd_pr__nfet_01v8 ad=0.0588 pd=0.7 as=0.0578 ps=0.695 w=0.42 l=0.15
.ends

.subckt sky130_fd_sc_hd__clkbuf_1 VGND VPWR X A VPB VNB
X0 VPWR a_75_212# X VPB sky130_fd_pr__pfet_01v8_hvt ad=0.115 pd=1.08 as=0.205 ps=2.1 w=0.79 l=0.15
X1 a_75_212# A VGND VNB sky130_fd_pr__nfet_01v8 ad=0.135 pd=1.56 as=0.0754 ps=0.81 w=0.52 l=0.15
X2 a_75_212# A VPWR VPB sky130_fd_pr__pfet_01v8_hvt ad=0.205 pd=2.1 as=0.115 ps=1.08 w=0.79 l=0.15
X3 VGND a_75_212# X VNB sky130_fd_pr__nfet_01v8 ad=0.0754 pd=0.81 as=0.135 ps=1.56 w=0.52 l=0.15
.ends

.subckt sky130_fd_sc_hd__and2b_1 X A_N B VGND VPWR VPB VNB
X0 VPWR B a_207_413# VPB sky130_fd_pr__pfet_01v8_hvt ad=0.228 pd=1.74 as=0.0609 ps=0.71 w=0.42 l=0.15
X1 X a_207_413# VPWR VPB sky130_fd_pr__pfet_01v8_hvt ad=0.26 pd=2.52 as=0.228 ps=1.74 w=1 l=0.15
X2 a_297_47# a_27_413# a_207_413# VNB sky130_fd_pr__nfet_01v8 ad=0.0504 pd=0.66 as=0.109 ps=1.36 w=0.42 l=0.15
X3 X a_207_413# VGND VNB sky130_fd_pr__nfet_01v8 ad=0.169 pd=1.82 as=0.101 ps=0.99 w=0.65 l=0.15
X4 a_207_413# a_27_413# VPWR VPB sky130_fd_pr__pfet_01v8_hvt ad=0.0609 pd=0.71 as=0.0714 ps=0.76 w=0.42 l=0.15
X5 VPWR A_N a_27_413# VPB sky130_fd_pr__pfet_01v8_hvt ad=0.0714 pd=0.76 as=0.109 ps=1.36 w=0.42 l=0.15
X6 VGND B a_297_47# VNB sky130_fd_pr__nfet_01v8 ad=0.101 pd=0.99 as=0.0504 ps=0.66 w=0.42 l=0.15
X7 a_27_413# A_N VGND VNB sky130_fd_pr__nfet_01v8 ad=0.109 pd=1.36 as=0.109 ps=1.36 w=0.42 l=0.15
.ends

.subckt sky130_fd_sc_hd__clkbuf_2 VGND VPWR A X VPB VNB
X0 VPWR A a_27_47# VPB sky130_fd_pr__pfet_01v8_hvt ad=0.162 pd=1.33 as=0.265 ps=2.53 w=1 l=0.15
X1 VPWR a_27_47# X VPB sky130_fd_pr__pfet_01v8_hvt ad=0.26 pd=2.52 as=0.135 ps=1.27 w=1 l=0.15
X2 VGND A a_27_47# VNB sky130_fd_pr__nfet_01v8 ad=0.0683 pd=0.745 as=0.111 ps=1.37 w=0.42 l=0.15
X3 X a_27_47# VPWR VPB sky130_fd_pr__pfet_01v8_hvt ad=0.135 pd=1.27 as=0.162 ps=1.33 w=1 l=0.15
X4 X a_27_47# VGND VNB sky130_fd_pr__nfet_01v8 ad=0.0567 pd=0.69 as=0.0683 ps=0.745 w=0.42 l=0.15
X5 VGND a_27_47# X VNB sky130_fd_pr__nfet_01v8 ad=0.109 pd=1.36 as=0.0567 ps=0.69 w=0.42 l=0.15
.ends

.subckt sky130_fd_sc_hd__dfxtp_1 Q CLK D VPB VNB VPWR VGND
X0 Q a_1059_315# VGND VNB sky130_fd_pr__nfet_01v8 ad=0.169 pd=1.82 as=0.0878 ps=0.92 w=0.65 l=0.15
X1 a_891_413# a_193_47# a_634_159# VNB sky130_fd_pr__nfet_01v8 ad=0.0684 pd=0.74 as=0.0989 ps=0.995 w=0.36 l=0.15
X2 a_561_413# a_27_47# a_466_413# VPB sky130_fd_pr__pfet_01v8_hvt ad=0.0767 pd=0.785 as=0.0683 ps=0.745 w=0.42 l=0.15
X3 VPWR CLK a_27_47# VPB sky130_fd_pr__pfet_01v8_hvt ad=0.0864 pd=0.91 as=0.166 ps=1.8 w=0.64 l=0.15
X4 Q a_1059_315# VPWR VPB sky130_fd_pr__pfet_01v8_hvt ad=0.26 pd=2.52 as=0.135 ps=1.27 w=1 l=0.15
X5 a_381_47# D VPWR VPB sky130_fd_pr__pfet_01v8_hvt ad=0.0578 pd=0.695 as=0.109 ps=1.36 w=0.42 l=0.15
X6 VGND a_634_159# a_592_47# VNB sky130_fd_pr__nfet_01v8 ad=0.121 pd=1.09 as=0.0696 ps=0.765 w=0.42 l=0.15
X7 VPWR a_891_413# a_1059_315# VPB sky130_fd_pr__pfet_01v8_hvt ad=0.135 pd=1.27 as=0.27 ps=2.54 w=1 l=0.15
X8 a_466_413# a_193_47# a_381_47# VPB sky130_fd_pr__pfet_01v8_hvt ad=0.0683 pd=0.745 as=0.0578 ps=0.695 w=0.42 l=0.15
X9 VPWR a_634_159# a_561_413# VPB sky130_fd_pr__pfet_01v8_hvt ad=0.179 pd=1.26 as=0.0767 ps=0.785 w=0.42 l=0.15
X10 a_634_159# a_466_413# VGND VNB sky130_fd_pr__nfet_01v8 ad=0.0989 pd=0.995 as=0.121 ps=1.09 w=0.64 l=0.15
X11 a_634_159# a_466_413# VPWR VPB sky130_fd_pr__pfet_01v8_hvt ad=0.109 pd=1.08 as=0.179 ps=1.26 w=0.75 l=0.15
X12 a_975_413# a_193_47# a_891_413# VPB sky130_fd_pr__pfet_01v8_hvt ad=0.0882 pd=0.84 as=0.0567 ps=0.69 w=0.42 l=0.15
X13 VGND a_1059_315# a_1017_47# VNB sky130_fd_pr__nfet_01v8 ad=0.109 pd=1.36 as=0.066 ps=0.745 w=0.42 l=0.15
X14 a_193_47# a_27_47# VGND VNB sky130_fd_pr__nfet_01v8 ad=0.109 pd=1.36 as=0.0567 ps=0.69 w=0.42 l=0.15
X15 a_891_413# a_27_47# a_634_159# VPB sky130_fd_pr__pfet_01v8_hvt ad=0.0567 pd=0.69 as=0.109 ps=1.08 w=0.42 l=0.15
X16 a_592_47# a_193_47# a_466_413# VNB sky130_fd_pr__nfet_01v8 ad=0.0696 pd=0.765 as=0.0621 ps=0.705 w=0.36 l=0.15
X17 a_1017_47# a_27_47# a_891_413# VNB sky130_fd_pr__nfet_01v8 ad=0.066 pd=0.745 as=0.0684 ps=0.74 w=0.36 l=0.15
X18 VPWR a_1059_315# a_975_413# VPB sky130_fd_pr__pfet_01v8_hvt ad=0.111 pd=1.37 as=0.0882 ps=0.84 w=0.42 l=0.15
X19 a_466_413# a_27_47# a_381_47# VNB sky130_fd_pr__nfet_01v8 ad=0.0621 pd=0.705 as=0.0813 ps=0.83 w=0.36 l=0.15
X20 a_193_47# a_27_47# VPWR VPB sky130_fd_pr__pfet_01v8_hvt ad=0.166 pd=1.8 as=0.0864 ps=0.91 w=0.64 l=0.15
X21 VGND a_891_413# a_1059_315# VNB sky130_fd_pr__nfet_01v8 ad=0.0878 pd=0.92 as=0.169 ps=1.82 w=0.65 l=0.15
X22 a_381_47# D VGND VNB sky130_fd_pr__nfet_01v8 ad=0.0813 pd=0.83 as=0.109 ps=1.36 w=0.42 l=0.15
X23 VGND CLK a_27_47# VNB sky130_fd_pr__nfet_01v8 ad=0.0567 pd=0.69 as=0.109 ps=1.36 w=0.42 l=0.15
.ends

.subckt sky130_fd_sc_hd__dfxtp_2 Q CLK D VPB VNB VPWR VGND
X0 Q a_1059_315# VGND VNB sky130_fd_pr__nfet_01v8 ad=0.0878 pd=0.92 as=0.0878 ps=0.92 w=0.65 l=0.15
X1 a_891_413# a_193_47# a_634_159# VNB sky130_fd_pr__nfet_01v8 ad=0.0684 pd=0.74 as=0.0989 ps=0.995 w=0.36 l=0.15
X2 VPWR a_1059_315# Q VPB sky130_fd_pr__pfet_01v8_hvt ad=0.26 pd=2.52 as=0.135 ps=1.27 w=1 l=0.15
X3 a_561_413# a_27_47# a_466_413# VPB sky130_fd_pr__pfet_01v8_hvt ad=0.0767 pd=0.785 as=0.0683 ps=0.745 w=0.42 l=0.15
X4 VPWR CLK a_27_47# VPB sky130_fd_pr__pfet_01v8_hvt ad=0.0864 pd=0.91 as=0.166 ps=1.8 w=0.64 l=0.15
X5 Q a_1059_315# VPWR VPB sky130_fd_pr__pfet_01v8_hvt ad=0.135 pd=1.27 as=0.135 ps=1.27 w=1 l=0.15
X6 a_381_47# D VPWR VPB sky130_fd_pr__pfet_01v8_hvt ad=0.0578 pd=0.695 as=0.109 ps=1.36 w=0.42 l=0.15
X7 VGND a_634_159# a_592_47# VNB sky130_fd_pr__nfet_01v8 ad=0.121 pd=1.09 as=0.0696 ps=0.765 w=0.42 l=0.15
X8 VGND a_1059_315# Q VNB sky130_fd_pr__nfet_01v8 ad=0.169 pd=1.82 as=0.0878 ps=0.92 w=0.65 l=0.15
X9 VPWR a_891_413# a_1059_315# VPB sky130_fd_pr__pfet_01v8_hvt ad=0.135 pd=1.27 as=0.27 ps=2.54 w=1 l=0.15
X10 a_466_413# a_193_47# a_381_47# VPB sky130_fd_pr__pfet_01v8_hvt ad=0.0683 pd=0.745 as=0.0578 ps=0.695 w=0.42 l=0.15
X11 VPWR a_634_159# a_561_413# VPB sky130_fd_pr__pfet_01v8_hvt ad=0.179 pd=1.26 as=0.0767 ps=0.785 w=0.42 l=0.15
X12 a_634_159# a_466_413# VGND VNB sky130_fd_pr__nfet_01v8 ad=0.0989 pd=0.995 as=0.121 ps=1.09 w=0.64 l=0.15
X13 a_634_159# a_466_413# VPWR VPB sky130_fd_pr__pfet_01v8_hvt ad=0.109 pd=1.08 as=0.179 ps=1.26 w=0.75 l=0.15
X14 a_975_413# a_193_47# a_891_413# VPB sky130_fd_pr__pfet_01v8_hvt ad=0.0882 pd=0.84 as=0.0567 ps=0.69 w=0.42 l=0.15
X15 VGND a_1059_315# a_1017_47# VNB sky130_fd_pr__nfet_01v8 ad=0.109 pd=1.36 as=0.066 ps=0.745 w=0.42 l=0.15
X16 a_193_47# a_27_47# VGND VNB sky130_fd_pr__nfet_01v8 ad=0.109 pd=1.36 as=0.0567 ps=0.69 w=0.42 l=0.15
X17 a_891_413# a_27_47# a_634_159# VPB sky130_fd_pr__pfet_01v8_hvt ad=0.0567 pd=0.69 as=0.109 ps=1.08 w=0.42 l=0.15
X18 a_592_47# a_193_47# a_466_413# VNB sky130_fd_pr__nfet_01v8 ad=0.0696 pd=0.765 as=0.0621 ps=0.705 w=0.36 l=0.15
X19 a_1017_47# a_27_47# a_891_413# VNB sky130_fd_pr__nfet_01v8 ad=0.066 pd=0.745 as=0.0684 ps=0.74 w=0.36 l=0.15
X20 VPWR a_1059_315# a_975_413# VPB sky130_fd_pr__pfet_01v8_hvt ad=0.111 pd=1.37 as=0.0882 ps=0.84 w=0.42 l=0.15
X21 a_466_413# a_27_47# a_381_47# VNB sky130_fd_pr__nfet_01v8 ad=0.0621 pd=0.705 as=0.0813 ps=0.83 w=0.36 l=0.15
X22 a_193_47# a_27_47# VPWR VPB sky130_fd_pr__pfet_01v8_hvt ad=0.166 pd=1.8 as=0.0864 ps=0.91 w=0.64 l=0.15
X23 VGND a_891_413# a_1059_315# VNB sky130_fd_pr__nfet_01v8 ad=0.0878 pd=0.92 as=0.169 ps=1.82 w=0.65 l=0.15
X24 a_381_47# D VGND VNB sky130_fd_pr__nfet_01v8 ad=0.0813 pd=0.83 as=0.109 ps=1.36 w=0.42 l=0.15
X25 VGND CLK a_27_47# VNB sky130_fd_pr__nfet_01v8 ad=0.0567 pd=0.69 as=0.109 ps=1.36 w=0.42 l=0.15
.ends

.subckt sky130_fd_sc_hd__dfxtp_4 VGND VPWR VNB VPB Q D CLK
X0 Q a_1062_300# VPWR VPB sky130_fd_pr__pfet_01v8_hvt ad=0.135 pd=1.27 as=0.142 ps=1.28 w=1 l=0.15
X1 a_1020_47# a_27_47# a_891_413# VNB sky130_fd_pr__nfet_01v8 ad=0.066 pd=0.745 as=0.0657 ps=0.725 w=0.36 l=0.15
X2 a_572_47# a_193_47# a_475_413# VNB sky130_fd_pr__nfet_01v8 ad=0.0687 pd=0.76 as=0.0594 ps=0.69 w=0.36 l=0.15
X3 VPWR a_1062_300# a_975_413# VPB sky130_fd_pr__pfet_01v8_hvt ad=0.122 pd=1.42 as=0.0913 ps=0.855 w=0.42 l=0.15
X4 a_634_183# a_475_413# VGND VNB sky130_fd_pr__nfet_01v8 ad=0.0989 pd=0.995 as=0.149 ps=1.22 w=0.64 l=0.15
X5 VPWR CLK a_27_47# VPB sky130_fd_pr__pfet_01v8_hvt ad=0.0864 pd=0.91 as=0.166 ps=1.8 w=0.64 l=0.15
X6 a_381_47# D VPWR VPB sky130_fd_pr__pfet_01v8_hvt ad=0.0672 pd=0.74 as=0.109 ps=1.36 w=0.42 l=0.15
X7 a_475_413# a_27_47# a_381_47# VNB sky130_fd_pr__nfet_01v8 ad=0.0594 pd=0.69 as=0.066 ps=0.745 w=0.36 l=0.15
X8 VGND a_1062_300# a_1020_47# VNB sky130_fd_pr__nfet_01v8 ad=0.12 pd=1.41 as=0.066 ps=0.745 w=0.42 l=0.15
X9 VPWR a_634_183# a_568_413# VPB sky130_fd_pr__pfet_01v8_hvt ad=0.179 pd=1.26 as=0.0693 ps=0.75 w=0.42 l=0.15
X10 Q a_1062_300# VGND VNB sky130_fd_pr__nfet_01v8 ad=0.0878 pd=0.92 as=0.0926 ps=0.935 w=0.65 l=0.15
X11 a_568_413# a_27_47# a_475_413# VPB sky130_fd_pr__pfet_01v8_hvt ad=0.0693 pd=0.75 as=0.0662 ps=0.735 w=0.42 l=0.15
X12 a_634_183# a_475_413# VPWR VPB sky130_fd_pr__pfet_01v8_hvt ad=0.109 pd=1.08 as=0.179 ps=1.26 w=0.75 l=0.15
X13 a_975_413# a_193_47# a_891_413# VPB sky130_fd_pr__pfet_01v8_hvt ad=0.0913 pd=0.855 as=0.0567 ps=0.69 w=0.42 l=0.15
X14 a_193_47# a_27_47# VGND VNB sky130_fd_pr__nfet_01v8 ad=0.109 pd=1.36 as=0.0567 ps=0.69 w=0.42 l=0.15
X15 a_891_413# a_27_47# a_634_183# VPB sky130_fd_pr__pfet_01v8_hvt ad=0.0567 pd=0.69 as=0.109 ps=1.08 w=0.42 l=0.15
X16 Q a_1062_300# VGND VNB sky130_fd_pr__nfet_01v8 ad=0.0878 pd=0.92 as=0.106 ps=0.975 w=0.65 l=0.15
X17 VGND a_891_413# a_1062_300# VNB sky130_fd_pr__nfet_01v8 ad=0.106 pd=0.975 as=0.169 ps=1.82 w=0.65 l=0.15
X18 VPWR a_1062_300# Q VPB sky130_fd_pr__pfet_01v8_hvt ad=0.142 pd=1.28 as=0.135 ps=1.27 w=1 l=0.15
X19 VGND a_1062_300# Q VNB sky130_fd_pr__nfet_01v8 ad=0.185 pd=1.87 as=0.0878 ps=0.92 w=0.65 l=0.15
X20 Q a_1062_300# VPWR VPB sky130_fd_pr__pfet_01v8_hvt ad=0.135 pd=1.27 as=0.162 ps=1.33 w=1 l=0.15
X21 a_193_47# a_27_47# VPWR VPB sky130_fd_pr__pfet_01v8_hvt ad=0.166 pd=1.8 as=0.0864 ps=0.91 w=0.64 l=0.15
X22 VGND a_1062_300# Q VNB sky130_fd_pr__nfet_01v8 ad=0.0926 pd=0.935 as=0.0878 ps=0.92 w=0.65 l=0.15
X23 a_381_47# D VGND VNB sky130_fd_pr__nfet_01v8 ad=0.066 pd=0.745 as=0.109 ps=1.36 w=0.42 l=0.15
X24 VPWR a_891_413# a_1062_300# VPB sky130_fd_pr__pfet_01v8_hvt ad=0.162 pd=1.33 as=0.28 ps=2.56 w=1 l=0.15
X25 a_891_413# a_193_47# a_634_183# VNB sky130_fd_pr__nfet_01v8 ad=0.0657 pd=0.725 as=0.0989 ps=0.995 w=0.36 l=0.15
X26 a_475_413# a_193_47# a_381_47# VPB sky130_fd_pr__pfet_01v8_hvt ad=0.0662 pd=0.735 as=0.0672 ps=0.74 w=0.42 l=0.15
X27 VGND a_634_183# a_572_47# VNB sky130_fd_pr__nfet_01v8 ad=0.149 pd=1.22 as=0.0687 ps=0.76 w=0.42 l=0.15
X28 VGND CLK a_27_47# VNB sky130_fd_pr__nfet_01v8 ad=0.0567 pd=0.69 as=0.109 ps=1.36 w=0.42 l=0.15
X29 VPWR a_1062_300# Q VPB sky130_fd_pr__pfet_01v8_hvt ad=0.28 pd=2.56 as=0.135 ps=1.27 w=1 l=0.15
.ends

.subckt sky130_fd_sc_hd__o21a_1 VPB VNB VGND VPWR A1 A2 B1 X
X0 VPWR A1 a_382_297# VPB sky130_fd_pr__pfet_01v8_hvt ad=0.26 pd=2.52 as=0.153 ps=1.3 w=1 l=0.15
X1 a_297_47# B1 a_79_21# VNB sky130_fd_pr__nfet_01v8 ad=0.101 pd=0.96 as=0.169 ps=1.82 w=0.65 l=0.15
X2 a_297_47# A1 VGND VNB sky130_fd_pr__nfet_01v8 ad=0.169 pd=1.82 as=0.0878 ps=0.92 w=0.65 l=0.15
X3 VGND A2 a_297_47# VNB sky130_fd_pr__nfet_01v8 ad=0.0878 pd=0.92 as=0.101 ps=0.96 w=0.65 l=0.15
X4 VPWR a_79_21# X VPB sky130_fd_pr__pfet_01v8_hvt ad=0.327 pd=1.65 as=0.28 ps=2.56 w=1 l=0.15
X5 a_79_21# B1 VPWR VPB sky130_fd_pr__pfet_01v8_hvt ad=0.195 pd=1.39 as=0.327 ps=1.65 w=1 l=0.15
X6 a_382_297# A2 a_79_21# VPB sky130_fd_pr__pfet_01v8_hvt ad=0.153 pd=1.3 as=0.195 ps=1.39 w=1 l=0.15
X7 VGND a_79_21# X VNB sky130_fd_pr__nfet_01v8 ad=0.169 pd=1.82 as=0.169 ps=1.82 w=0.65 l=0.15
.ends

.subckt sky130_fd_sc_hd__and3b_1 A_N B X C VGND VPWR VPB VNB
X0 a_109_93# A_N VGND VNB sky130_fd_pr__nfet_01v8 ad=0.108 pd=1.36 as=0.109 ps=1.36 w=0.42 l=0.15
X1 X a_209_311# VPWR VPB sky130_fd_pr__pfet_01v8_hvt ad=0.26 pd=2.52 as=0.142 ps=1.34 w=1 l=0.15
X2 a_109_93# A_N VPWR VPB sky130_fd_pr__pfet_01v8_hvt ad=0.109 pd=1.36 as=0.109 ps=1.36 w=0.42 l=0.15
X3 a_296_53# a_109_93# a_209_311# VNB sky130_fd_pr__nfet_01v8 ad=0.0441 pd=0.63 as=0.108 ps=1.36 w=0.42 l=0.15
X4 VPWR C a_209_311# VPB sky130_fd_pr__pfet_01v8_hvt ad=0.142 pd=1.34 as=0.0744 ps=0.815 w=0.42 l=0.15
X5 a_368_53# B a_296_53# VNB sky130_fd_pr__nfet_01v8 ad=0.0536 pd=0.675 as=0.0441 ps=0.63 w=0.42 l=0.15
X6 X a_209_311# VGND VNB sky130_fd_pr__nfet_01v8 ad=0.169 pd=1.82 as=0.122 ps=1.08 w=0.65 l=0.15
X7 a_209_311# B VPWR VPB sky130_fd_pr__pfet_01v8_hvt ad=0.0744 pd=0.815 as=0.0567 ps=0.69 w=0.42 l=0.15
X8 VPWR a_109_93# a_209_311# VPB sky130_fd_pr__pfet_01v8_hvt ad=0.0567 pd=0.69 as=0.108 ps=1.36 w=0.42 l=0.15
X9 VGND C a_368_53# VNB sky130_fd_pr__nfet_01v8 ad=0.122 pd=1.08 as=0.0536 ps=0.675 w=0.42 l=0.15
.ends

.subckt sky130_fd_sc_hd__a21boi_1 VPWR VGND VPB VNB B1_N Y A1 A2
X0 a_300_297# a_27_413# Y VPB sky130_fd_pr__pfet_01v8_hvt ad=0.14 pd=1.28 as=0.265 ps=2.53 w=1 l=0.15
X1 VGND A2 a_384_47# VNB sky130_fd_pr__nfet_01v8 ad=0.172 pd=1.83 as=0.091 ps=0.93 w=0.65 l=0.15
X2 VPWR B1_N a_27_413# VPB sky130_fd_pr__pfet_01v8_hvt ad=0.111 pd=1.37 as=0.111 ps=1.37 w=0.42 l=0.15
X3 Y a_27_413# VGND VNB sky130_fd_pr__nfet_01v8 ad=0.143 pd=1.09 as=0.102 ps=0.99 w=0.65 l=0.15
X4 VPWR A1 a_300_297# VPB sky130_fd_pr__pfet_01v8_hvt ad=0.14 pd=1.28 as=0.14 ps=1.28 w=1 l=0.15
X5 a_384_47# A1 Y VNB sky130_fd_pr__nfet_01v8 ad=0.091 pd=0.93 as=0.143 ps=1.09 w=0.65 l=0.15
X6 VGND B1_N a_27_413# VNB sky130_fd_pr__nfet_01v8 ad=0.102 pd=0.99 as=0.111 ps=1.37 w=0.42 l=0.15
X7 a_300_297# A2 VPWR VPB sky130_fd_pr__pfet_01v8_hvt ad=0.265 pd=2.53 as=0.14 ps=1.28 w=1 l=0.15
.ends

.subckt sky130_fd_sc_hd__and2_1 VPWR VGND X B A VPB VNB
X0 VPWR B a_59_75# VPB sky130_fd_pr__pfet_01v8_hvt ad=0.167 pd=1.39 as=0.0567 ps=0.69 w=0.42 l=0.15
X1 X a_59_75# VPWR VPB sky130_fd_pr__pfet_01v8_hvt ad=0.475 pd=2.95 as=0.167 ps=1.39 w=1 l=0.15
X2 VGND B a_145_75# VNB sky130_fd_pr__nfet_01v8 ad=0.112 pd=1.04 as=0.0567 ps=0.69 w=0.42 l=0.15
X3 a_59_75# A VPWR VPB sky130_fd_pr__pfet_01v8_hvt ad=0.0567 pd=0.69 as=0.118 ps=1.4 w=0.42 l=0.15
X4 X a_59_75# VGND VNB sky130_fd_pr__nfet_01v8 ad=0.182 pd=1.86 as=0.112 ps=1.04 w=0.65 l=0.15
X5 a_145_75# A a_59_75# VNB sky130_fd_pr__nfet_01v8 ad=0.0567 pd=0.69 as=0.118 ps=1.4 w=0.42 l=0.15
.ends

.subckt sky130_fd_sc_hd__clkbuf_4 VGND VPWR A X VPB VNB
X0 VPWR A a_27_47# VPB sky130_fd_pr__pfet_01v8_hvt ad=0.165 pd=1.33 as=0.265 ps=2.53 w=1 l=0.15
X1 VGND a_27_47# X VNB sky130_fd_pr__nfet_01v8 ad=0.122 pd=1.42 as=0.0588 ps=0.7 w=0.42 l=0.15
X2 VGND a_27_47# X VNB sky130_fd_pr__nfet_01v8 ad=0.0588 pd=0.7 as=0.0588 ps=0.7 w=0.42 l=0.15
X3 X a_27_47# VPWR VPB sky130_fd_pr__pfet_01v8_hvt ad=0.14 pd=1.28 as=0.14 ps=1.28 w=1 l=0.15
X4 X a_27_47# VGND VNB sky130_fd_pr__nfet_01v8 ad=0.0588 pd=0.7 as=0.0588 ps=0.7 w=0.42 l=0.15
X5 VGND A a_27_47# VNB sky130_fd_pr__nfet_01v8 ad=0.0703 pd=0.755 as=0.111 ps=1.37 w=0.42 l=0.15
X6 VPWR a_27_47# X VPB sky130_fd_pr__pfet_01v8_hvt ad=0.3 pd=2.6 as=0.14 ps=1.28 w=1 l=0.15
X7 X a_27_47# VGND VNB sky130_fd_pr__nfet_01v8 ad=0.0588 pd=0.7 as=0.0703 ps=0.755 w=0.42 l=0.15
X8 X a_27_47# VPWR VPB sky130_fd_pr__pfet_01v8_hvt ad=0.14 pd=1.28 as=0.165 ps=1.33 w=1 l=0.15
X9 VPWR a_27_47# X VPB sky130_fd_pr__pfet_01v8_hvt ad=0.14 pd=1.28 as=0.14 ps=1.28 w=1 l=0.15
.ends

.subckt sky130_fd_sc_hd__xor2_1 VNB VPB VPWR VGND A X B
X0 X a_35_297# a_285_297# VPB sky130_fd_pr__pfet_01v8_hvt ad=0.3 pd=2.6 as=0.26 ps=2.52 w=1 l=0.15
X1 X B a_285_47# VNB sky130_fd_pr__nfet_01v8 ad=0.25 pd=1.42 as=0.0878 ps=0.92 w=0.65 l=0.15
X2 a_35_297# B VGND VNB sky130_fd_pr__nfet_01v8 ad=0.0878 pd=0.92 as=0.169 ps=1.82 w=0.65 l=0.15
X3 a_117_297# B a_35_297# VPB sky130_fd_pr__pfet_01v8_hvt ad=0.135 pd=1.27 as=0.26 ps=2.52 w=1 l=0.15
X4 VPWR B a_285_297# VPB sky130_fd_pr__pfet_01v8_hvt ad=0.26 pd=2.52 as=0.135 ps=1.27 w=1 l=0.15
X5 VGND A a_35_297# VNB sky130_fd_pr__nfet_01v8 ad=0.0878 pd=0.92 as=0.0878 ps=0.92 w=0.65 l=0.15
X6 VGND a_35_297# X VNB sky130_fd_pr__nfet_01v8 ad=0.208 pd=1.94 as=0.25 ps=1.42 w=0.65 l=0.15
X7 a_285_297# A VPWR VPB sky130_fd_pr__pfet_01v8_hvt ad=0.135 pd=1.27 as=0.135 ps=1.27 w=1 l=0.15
X8 VPWR A a_117_297# VPB sky130_fd_pr__pfet_01v8_hvt ad=0.135 pd=1.27 as=0.135 ps=1.27 w=1 l=0.15
X9 a_285_47# A VGND VNB sky130_fd_pr__nfet_01v8 ad=0.0878 pd=0.92 as=0.0878 ps=0.92 w=0.65 l=0.15
.ends

.subckt sky130_fd_sc_hd__diode_2 DIODE VGND VPWR VPB VNB
D0 VNB DIODE sky130_fd_pr__diode_pw2nd_05v5 pj=2.64e+06 area=4.347e+11
.ends

.subckt sky130_fd_sc_hd__buf_2 VPWR VGND X A VPB VNB
X0 VPWR a_27_47# X VPB sky130_fd_pr__pfet_01v8_hvt ad=0.265 pd=2.53 as=0.135 ps=1.27 w=1 l=0.15
X1 X a_27_47# VPWR VPB sky130_fd_pr__pfet_01v8_hvt ad=0.135 pd=1.27 as=0.149 ps=1.33 w=1 l=0.15
X2 VPWR A a_27_47# VPB sky130_fd_pr__pfet_01v8_hvt ad=0.149 pd=1.33 as=0.166 ps=1.8 w=0.64 l=0.15
X3 X a_27_47# VGND VNB sky130_fd_pr__nfet_01v8 ad=0.0878 pd=0.92 as=0.097 ps=0.975 w=0.65 l=0.15
X4 VGND a_27_47# X VNB sky130_fd_pr__nfet_01v8 ad=0.172 pd=1.83 as=0.0878 ps=0.92 w=0.65 l=0.15
X5 VGND A a_27_47# VNB sky130_fd_pr__nfet_01v8 ad=0.097 pd=0.975 as=0.109 ps=1.36 w=0.42 l=0.15
.ends

.subckt counter VGND VPWR clk_i cnt_o[0] cnt_o[1] cnt_o[2] rst_n_i
XFILLER_0_94_77 VPWR VGND VPWR VGND sky130_fd_sc_hd__decap_6
XFILLER_0_27_93 VGND VPWR VPWR VGND sky130_ef_sc_hd__decap_12
XFILLER_0_89_461 VGND VPWR VPWR VGND sky130_ef_sc_hd__decap_12
XFILLER_0_76_133 VPWR VGND VPWR VGND sky130_fd_sc_hd__decap_6
XFILLER_0_76_177 VGND VPWR VPWR VGND sky130_ef_sc_hd__decap_12
XFILLER_0_43_81 VGND VPWR VPWR VGND sky130_ef_sc_hd__decap_12
XFILLER_0_91_125 VGND VPWR VPWR VGND sky130_ef_sc_hd__decap_12
XFILLER_0_91_169 VGND VPWR VPWR VGND sky130_ef_sc_hd__decap_12
XFILLER_0_45_553 VPWR VGND VPWR VGND sky130_fd_sc_hd__decap_6
XFILLER_0_60_501 VGND VPWR VPWR VGND sky130_ef_sc_hd__decap_12
XFILLER_0_45_597 VGND VPWR VPWR VGND sky130_ef_sc_hd__decap_12
XFILLER_0_60_545 VGND VPWR VPWR VGND sky130_ef_sc_hd__decap_12
XFILLER_0_13_461 VGND VPWR VPWR VGND sky130_ef_sc_hd__decap_12
XFILLER_0_60_589 VGND VPWR VPWR VGND sky130_ef_sc_hd__decap_12
XFILLER_0_7_81 VGND VPWR VPWR VGND sky130_ef_sc_hd__decap_12
XFILLER_0_99_225 VGND VPWR VPWR VGND sky130_ef_sc_hd__decap_12
XFILLER_0_68_601 VGND VPWR VPWR VGND sky130_ef_sc_hd__decap_12
XFILLER_0_55_317 VGND VPWR VPWR VGND sky130_ef_sc_hd__decap_12
XFILLER_0_95_497 VPWR VGND VPWR VGND sky130_fd_sc_hd__decap_6
XFILLER_0_70_309 VGND VPWR VPWR VGND sky130_ef_sc_hd__decap_12
XFILLER_0_3_609 VPWR VGND VPWR VGND sky130_fd_sc_hd__decap_6
XFILLER_0_63_361 VGND VPWR VPWR VGND sky130_ef_sc_hd__decap_12
XFILLER_0_23_225 VGND VPWR VPWR VGND sky130_ef_sc_hd__decap_12
XFILLER_0_48_15 VGND VPWR VPWR VGND sky130_ef_sc_hd__decap_12
XFILLER_0_3_39 VGND VPWR VPWR VGND sky130_ef_sc_hd__decap_12
XFILLER_0_58_133 VPWR VGND VPWR VGND sky130_fd_sc_hd__decap_6
XFILLER_0_13_51 VGND VPWR VPWR VGND sky130_fd_sc_hd__decap_4
XFILLER_0_73_125 VGND VPWR VPWR VGND sky130_ef_sc_hd__decap_12
XFILLER_0_58_177 VGND VPWR VPWR VGND sky130_ef_sc_hd__decap_12
XFILLER_0_73_169 VGND VPWR VPWR VGND sky130_ef_sc_hd__decap_12
XFILLER_0_27_553 VPWR VGND VPWR VGND sky130_fd_sc_hd__decap_6
XFILLER_0_6_469 VPWR VGND VPWR VGND sky130_fd_sc_hd__decap_6
XFILLER_0_42_501 VGND VPWR VPWR VGND sky130_ef_sc_hd__decap_12
XFILLER_0_27_597 VGND VPWR VPWR VGND sky130_ef_sc_hd__decap_12
XFILLER_0_42_545 VGND VPWR VPWR VGND sky130_ef_sc_hd__decap_12
XFILLER_0_42_589 VGND VPWR VPWR VGND sky130_ef_sc_hd__decap_12
XFILLER_0_92_401 VGND VPWR VPWR VGND sky130_ef_sc_hd__decap_12
XFILLER_0_77_497 VPWR VGND VPWR VGND sky130_fd_sc_hd__decap_6
XFILLER_0_37_317 VGND VPWR VPWR VGND sky130_ef_sc_hd__decap_12
XFILLER_0_92_445 VGND VPWR VPWR VGND sky130_ef_sc_hd__decap_12
XFILLER_0_52_309 VGND VPWR VPWR VGND sky130_ef_sc_hd__decap_12
XFILLER_0_92_489 VGND VPWR VPWR VGND sky130_ef_sc_hd__decap_12
XFILLER_0_45_361 VGND VPWR VPWR VGND sky130_ef_sc_hd__decap_12
XFILLER_0_18_29 VGND VPWR VPWR VGND sky130_ef_sc_hd__decap_12
XFILLER_0_87_217 VPWR VGND VPWR VGND sky130_fd_sc_hd__decap_6
XFILLER_0_95_261 VGND VPWR VPWR VGND sky130_ef_sc_hd__decap_12
XFILLER_0_55_125 VGND VPWR VPWR VGND sky130_ef_sc_hd__decap_12
XFILLER_0_24_501 VGND VPWR VPWR VGND sky130_ef_sc_hd__decap_12
XFILLER_0_55_169 VGND VPWR VPWR VGND sky130_ef_sc_hd__decap_12
XFILLER_0_3_417 VGND VPWR VPWR VGND sky130_ef_sc_hd__decap_12
XFILLER_0_24_545 VGND VPWR VPWR VGND sky130_ef_sc_hd__decap_12
XFILLER_0_24_589 VGND VPWR VPWR VGND sky130_ef_sc_hd__decap_12
XFILLER_0_11_217 VPWR VGND VPWR VGND sky130_fd_sc_hd__decap_6
XFILLER_0_51_375 VGND VPWR VPWR VGND sky130_ef_sc_hd__decap_12
XFILLER_0_59_69 VGND VPWR VPWR VGND sky130_ef_sc_hd__decap_12
XFILLER_0_75_57 VGND VPWR VPWR VGND sky130_ef_sc_hd__decap_12
XFILLER_0_19_317 VGND VPWR VPWR VGND sky130_ef_sc_hd__decap_12
XFILLER_0_74_401 VGND VPWR VPWR VGND sky130_ef_sc_hd__decap_12
XFILLER_0_59_497 VPWR VGND VPWR VGND sky130_fd_sc_hd__decap_6
XFILLER_0_74_445 VGND VPWR VPWR VGND sky130_ef_sc_hd__decap_12
XFILLER_0_6_233 VGND VPWR VPWR VGND sky130_ef_sc_hd__decap_12
XFILLER_0_74_489 VGND VPWR VPWR VGND sky130_ef_sc_hd__decap_12
XFILLER_0_34_309 VGND VPWR VPWR VGND sky130_ef_sc_hd__decap_12
XFILLER_0_27_361 VGND VPWR VPWR VGND sky130_ef_sc_hd__decap_12
XFILLER_0_6_277 VGND VPWR VPWR VGND sky130_ef_sc_hd__decap_12
XFILLER_0_71_3 VGND VPWR VPWR VGND sky130_ef_sc_hd__decap_12
XFILLER_0_100_469 VPWR VGND VPWR VGND sky130_fd_sc_hd__decap_6
XFILLER_0_69_217 VPWR VGND VPWR VGND sky130_fd_sc_hd__decap_6
XFILLER_0_84_209 VGND VPWR VPWR VGND sky130_ef_sc_hd__decap_12
XFILLER_0_77_261 VGND VPWR VPWR VGND sky130_ef_sc_hd__decap_12
XFILLER_0_37_125 VGND VPWR VPWR VGND sky130_ef_sc_hd__decap_12
XFILLER_0_92_253 VGND VPWR VPWR VGND sky130_ef_sc_hd__decap_12
XFILLER_0_37_169 VGND VPWR VPWR VGND sky130_ef_sc_hd__decap_12
XFILLER_0_29_39 VGND VPWR VPWR VGND sky130_ef_sc_hd__decap_12
XFILLER_0_45_27 VGND VPWR VPWR VGND sky130_ef_sc_hd__decap_12
XFILLER_0_0_29 VGND VPWR VPWR VGND sky130_ef_sc_hd__decap_12
XFILLER_0_61_15 VGND VPWR VPWR VGND sky130_ef_sc_hd__decap_12
XFILLER_0_96_581 VPWR VGND VPWR VGND sky130_fd_sc_hd__decap_6
XFILLER_0_56_445 VGND VPWR VPWR VGND sky130_ef_sc_hd__decap_12
XFILLER_0_16_309 VGND VPWR VPWR VGND sky130_ef_sc_hd__decap_12
XFILLER_0_56_489 VGND VPWR VPWR VGND sky130_ef_sc_hd__decap_12
XFILLER_0_9_27 VGND VPWR VPWR VGND sky130_ef_sc_hd__decap_12
XFILLER_0_3_225 VGND VPWR VPWR VGND sky130_ef_sc_hd__decap_12
XFILLER_0_10_41 VGND VPWR VPWR VGND sky130_ef_sc_hd__decap_12
XFILLER_0_51_161 VPWR VGND VPWR VGND sky130_fd_sc_hd__decap_6
XFILLER_0_10_85 VGND VPWR VPWR VGND sky130_ef_sc_hd__decap_12
XFILLER_0_20_581 VPWR VGND VPWR VGND sky130_fd_sc_hd__decap_6
XFILLER_0_66_209 VGND VPWR VPWR VGND sky130_ef_sc_hd__decap_12
XFILLER_0_35_93 VGND VPWR VPWR VGND sky130_ef_sc_hd__decap_12
XFILLER_0_59_261 VGND VPWR VPWR VGND sky130_ef_sc_hd__decap_12
XFILLER_0_19_125 VGND VPWR VPWR VGND sky130_ef_sc_hd__decap_12
XFILLER_0_19_169 VGND VPWR VPWR VGND sky130_ef_sc_hd__decap_12
XFILLER_0_74_253 VGND VPWR VPWR VGND sky130_ef_sc_hd__decap_12
XFILLER_0_51_81 VGND VPWR VPWR VGND sky130_ef_sc_hd__decap_12
XFILLER_0_7_553 VPWR VGND VPWR VGND sky130_fd_sc_hd__decap_6
XFILLER_0_7_597 VGND VPWR VPWR VGND sky130_ef_sc_hd__decap_12
XFILLER_0_30_301 VPWR VGND VPWR VGND sky130_fd_sc_hd__decap_6
XFILLER_0_30_345 VGND VPWR VPWR VGND sky130_ef_sc_hd__decap_12
XFILLER_0_100_233 VGND VPWR VPWR VGND sky130_ef_sc_hd__decap_12
XFILLER_0_30_389 VGND VPWR VPWR VGND sky130_ef_sc_hd__decap_12
XFILLER_0_100_277 VGND VPWR VPWR VGND sky130_ef_sc_hd__decap_12
XFILLER_0_85_529 VGND VPWR VPWR VGND sky130_ef_sc_hd__decap_12
XFILLER_0_78_581 VPWR VGND VPWR VGND sky130_fd_sc_hd__decap_6
XFILLER_0_38_401 VGND VPWR VPWR VGND sky130_ef_sc_hd__decap_12
XFILLER_0_38_445 VGND VPWR VPWR VGND sky130_ef_sc_hd__decap_12
XFILLER_0_93_573 VGND VPWR VPWR VGND sky130_ef_sc_hd__decap_12
XFILLER_0_38_489 VGND VPWR VPWR VGND sky130_ef_sc_hd__decap_12
XFILLER_0_80_245 VPWR VGND VPWR VGND sky130_fd_sc_hd__decap_6
XFILLER_0_80_289 VGND VPWR VPWR VGND sky130_ef_sc_hd__decap_12
XFILLER_0_40_109 VGND VPWR VPWR VGND sky130_ef_sc_hd__decap_12
XFILLER_0_33_161 VPWR VGND VPWR VGND sky130_fd_sc_hd__decap_6
XFILLER_0_56_15 VGND VPWR VPWR VGND sky130_ef_sc_hd__decap_12
XFILLER_0_88_301 VPWR VGND VPWR VGND sky130_fd_sc_hd__decap_6
XFILLER_0_88_345 VGND VPWR VPWR VGND sky130_ef_sc_hd__decap_12
XFILLER_0_48_209 VGND VPWR VPWR VGND sky130_ef_sc_hd__decap_12
XFILLER_0_88_389 VGND VPWR VPWR VGND sky130_ef_sc_hd__decap_12
XFILLER_0_56_253 VGND VPWR VPWR VGND sky130_ef_sc_hd__decap_12
XFILLER_0_4_501 VGND VPWR VPWR VGND sky130_ef_sc_hd__decap_12
XFILLER_0_21_51 VGND VPWR VPWR VGND sky130_fd_sc_hd__decap_4
XFILLER_0_4_545 VGND VPWR VPWR VGND sky130_ef_sc_hd__decap_12
XFILLER_0_12_301 VPWR VGND VPWR VGND sky130_fd_sc_hd__decap_6
XFILLER_0_4_589 VGND VPWR VPWR VGND sky130_ef_sc_hd__decap_12