* NGSPICE file created from counter.ext - technology: sky130A

.subckt sky130_ef_sc_hd__decap_12 VGND VPWR VPB VNB
X0 VPWR VGND VPWR VPB sky130_fd_pr__pfet_01v8_hvt ad=0.226 pd=2.26 as=0 ps=0 w=0.87 l=4.73
X1 VGND VPWR VGND VNB sky130_fd_pr__nfet_01v8 ad=0.143 pd=1.62 as=0 ps=0 w=0.55 l=4.73
.ends

.subckt sky130_fd_sc_hd__decap_3 VPWR VGND VPB VNB
X0 VPWR VGND VPWR VPB sky130_fd_pr__pfet_01v8_hvt ad=0.226 pd=2.26 as=0 ps=0 w=0.87 l=0.59
X1 VGND VPWR VGND VNB sky130_fd_pr__nfet_01v8 ad=0.143 pd=1.62 as=0 ps=0 w=0.55 l=0.59
.ends

.subckt sky130_fd_sc_hd__decap_4 VGND VPWR VPB VNB
X0 VPWR VGND VPWR VPB sky130_fd_pr__pfet_01v8_hvt ad=0.226 pd=2.26 as=0 ps=0 w=0.87 l=1.05
X1 VGND VPWR VGND VNB sky130_fd_pr__nfet_01v8 ad=0.143 pd=1.62 as=0 ps=0 w=0.55 l=1.05
.ends

.subckt sky130_fd_sc_hd__decap_6 VPWR VGND VPB VNB
X0 VPWR VGND VPWR VPB sky130_fd_pr__pfet_01v8_hvt ad=0.226 pd=2.26 as=0 ps=0 w=0.87 l=1.97
X1 VGND VPWR VGND VNB sky130_fd_pr__nfet_01v8 ad=0.143 pd=1.62 as=0 ps=0 w=0.55 l=1.97
.ends

.subckt sky130_fd_sc_hd__decap_8 VPWR VGND VPB VNB
X0 VPWR VGND VPWR VPB sky130_fd_pr__pfet_01v8_hvt ad=0.226 pd=2.26 as=0 ps=0 w=0.87 l=2.89
X1 VGND VPWR VGND VNB sky130_fd_pr__nfet_01v8 ad=0.143 pd=1.62 as=0 ps=0 w=0.55 l=2.89
.ends

.subckt sky130_fd_sc_hd__clkbuf_16 VNB VPB VGND VPWR A X
X0 VPWR A a_110_47# VPB sky130_fd_pr__pfet_01v8_hvt ad=0.14 pd=1.28 as=0.14 ps=1.28 w=1 l=0.15
X1 VPWR a_110_47# X VPB sky130_fd_pr__pfet_01v8_hvt ad=0.14 pd=1.28 as=0.14 ps=1.28 w=1 l=0.15
X2 X a_110_47# VPWR VPB sky130_fd_pr__pfet_01v8_hvt ad=0.14 pd=1.28 as=0.14 ps=1.28 w=1 l=0.15
X3 X a_110_47# VPWR VPB sky130_fd_pr__pfet_01v8_hvt ad=0.14 pd=1.28 as=0.14 ps=1.28 w=1 l=0.15
X4 VPWR a_110_47# X VPB sky130_fd_pr__pfet_01v8_hvt ad=0.14 pd=1.28 as=0.14 ps=1.28 w=1 l=0.15
X5 VPWR a_110_47# X VPB sky130_fd_pr__pfet_01v8_hvt ad=0.265 pd=2.53 as=0.14 ps=1.28 w=1 l=0.15
X6 a_110_47# A VPWR VPB sky130_fd_pr__pfet_01v8_hvt ad=0.14 pd=1.28 as=0.265 ps=2.53 w=1 l=0.15
X7 a_110_47# A VGND VNB sky130_fd_pr__nfet_01v8 ad=0.0588 pd=0.7 as=0.0588 ps=0.7 w=0.42 l=0.15
X8 VGND a_110_47# X VNB sky130_fd_pr__nfet_01v8 ad=0.0588 pd=0.7 as=0.0588 ps=0.7 w=0.42 l=0.15
X9 X a_110_47# VGND VNB sky130_fd_pr__nfet_01v8 ad=0.0588 pd=0.7 as=0.0588 ps=0.7 w=0.42 l=0.15
X10 VGND a_110_47# X VNB sky130_fd_pr__nfet_01v8 ad=0.0588 pd=0.7 as=0.0588 ps=0.7 w=0.42 l=0.15
X11 a_110_47# A VPWR VPB sky130_fd_pr__pfet_01v8_hvt ad=0.14 pd=1.28 as=0.14 ps=1.28 w=1 l=0.15
X12 VGND A a_110_47# VNB sky130_fd_pr__nfet_01v8 ad=0.0588 pd=0.7 as=0.0588 ps=0.7 w=0.42 l=0.15
X13 VGND a_110_47# X VNB sky130_fd_pr__nfet_01v8 ad=0.0578 pd=0.695 as=0.0588 ps=0.7 w=0.42 l=0.15
X14 VPWR a_110_47# X VPB sky130_fd_pr__pfet_01v8_hvt ad=0.14 pd=1.28 as=0.14 ps=1.28 w=1 l=0.15
X15 X a_110_47# VPWR VPB sky130_fd_pr__pfet_01v8_hvt ad=0.14 pd=1.28 as=0.14 ps=1.28 w=1 l=0.15
X16 VGND A a_110_47# VNB sky130_fd_pr__nfet_01v8 ad=0.0588 pd=0.7 as=0.0588 ps=0.7 w=0.42 l=0.15
X17 VGND a_110_47# X VNB sky130_fd_pr__nfet_01v8 ad=0.111 pd=1.37 as=0.0588 ps=0.7 w=0.42 l=0.15
X18 VPWR a_110_47# X VPB sky130_fd_pr__pfet_01v8_hvt ad=0.138 pd=1.27 as=0.14 ps=1.28 w=1 l=0.15
X19 VGND a_110_47# X VNB sky130_fd_pr__nfet_01v8 ad=0.0588 pd=0.7 as=0.0588 ps=0.7 w=0.42 l=0.15
X20 X a_110_47# VPWR VPB sky130_fd_pr__pfet_01v8_hvt ad=0.14 pd=1.28 as=0.138 ps=1.27 w=1 l=0.15
X21 a_110_47# A VGND VNB sky130_fd_pr__nfet_01v8 ad=0.0588 pd=0.7 as=0.111 ps=1.37 w=0.42 l=0.15
X22 VPWR A a_110_47# VPB sky130_fd_pr__pfet_01v8_hvt ad=0.14 pd=1.28 as=0.14 ps=1.28 w=1 l=0.15
X23 VPWR a_110_47# X VPB sky130_fd_pr__pfet_01v8_hvt ad=0.14 pd=1.28 as=0.14 ps=1.28 w=1 l=0.15
X24 VPWR a_110_47# X VPB sky130_fd_pr__pfet_01v8_hvt ad=0.14 pd=1.28 as=0.14 ps=1.28 w=1 l=0.15
X25 VGND a_110_47# X VNB sky130_fd_pr__nfet_01v8 ad=0.0588 pd=0.7 as=0.0588 ps=0.7 w=0.42 l=0.15
X26 X a_110_47# VPWR VPB sky130_fd_pr__pfet_01v8_hvt ad=0.14 pd=1.28 as=0.14 ps=1.28 w=1 l=0.15
X27 VGND a_110_47# X VNB sky130_fd_pr__nfet_01v8 ad=0.0588 pd=0.7 as=0.0588 ps=0.7 w=0.42 l=0.15
X28 VGND a_110_47# X VNB sky130_fd_pr__nfet_01v8 ad=0.0588 pd=0.7 as=0.0588 ps=0.7 w=0.42 l=0.15
X29 X a_110_47# VGND VNB sky130_fd_pr__nfet_01v8 ad=0.0588 pd=0.7 as=0.0588 ps=0.7 w=0.42 l=0.15
X30 X a_110_47# VPWR VPB sky130_fd_pr__pfet_01v8_hvt ad=0.14 pd=1.28 as=0.14 ps=1.28 w=1 l=0.15
X31 X a_110_47# VPWR VPB sky130_fd_pr__pfet_01v8_hvt ad=0.14 pd=1.28 as=0.14 ps=1.28 w=1 l=0.15
X32 X a_110_47# VGND VNB sky130_fd_pr__nfet_01v8 ad=0.0588 pd=0.7 as=0.0588 ps=0.7 w=0.42 l=0.15
X33 VPWR a_110_47# X VPB sky130_fd_pr__pfet_01v8_hvt ad=0.14 pd=1.28 as=0.14 ps=1.28 w=1 l=0.15
X34 X a_110_47# VPWR VPB sky130_fd_pr__pfet_01v8_hvt ad=0.14 pd=1.28 as=0.14 ps=1.28 w=1 l=0.15
X35 X a_110_47# VGND VNB sky130_fd_pr__nfet_01v8 ad=0.0588 pd=0.7 as=0.0588 ps=0.7 w=0.42 l=0.15
X36 X a_110_47# VGND VNB sky130_fd_pr__nfet_01v8 ad=0.0588 pd=0.7 as=0.0588 ps=0.7 w=0.42 l=0.15
X37 X a_110_47# VGND VNB sky130_fd_pr__nfet_01v8 ad=0.0588 pd=0.7 as=0.0588 ps=0.7 w=0.42 l=0.15
X38 X a_110_47# VGND VNB sky130_fd_pr__nfet_01v8 ad=0.0588 pd=0.7 as=0.0588 ps=0.7 w=0.42 l=0.15
X39 X a_110_47# VGND VNB sky130_fd_pr__nfet_01v8 ad=0.0588 pd=0.7 as=0.0578 ps=0.695 w=0.42 l=0.15
.ends

.subckt sky130_fd_sc_hd__clkbuf_1 VGND VPWR X A VPB VNB
X0 VPWR a_75_212# X VPB sky130_fd_pr__pfet_01v8_hvt ad=0.115 pd=1.08 as=0.205 ps=2.1 w=0.79 l=0.15
X1 a_75_212# A VGND VNB sky130_fd_pr__nfet_01v8 ad=0.135 pd=1.56 as=0.0754 ps=0.81 w=0.52 l=0.15
X2 a_75_212# A VPWR VPB sky130_fd_pr__pfet_01v8_hvt ad=0.205 pd=2.1 as=0.115 ps=1.08 w=0.79 l=0.15
X3 VGND a_75_212# X VNB sky130_fd_pr__nfet_01v8 ad=0.0754 pd=0.81 as=0.135 ps=1.56 w=0.52 l=0.15
.ends

.subckt sky130_fd_sc_hd__and2b_1 X A_N B VGND VPWR VPB VNB
X0 VPWR B a_207_413# VPB sky130_fd_pr__pfet_01v8_hvt ad=0.228 pd=1.74 as=0.0609 ps=0.71 w=0.42 l=0.15
X1 X a_207_413# VPWR VPB sky130_fd_pr__pfet_01v8_hvt ad=0.26 pd=2.52 as=0.228 ps=1.74 w=1 l=0.15
X2 a_297_47# a_27_413# a_207_413# VNB sky130_fd_pr__nfet_01v8 ad=0.0504 pd=0.66 as=0.109 ps=1.36 w=0.42 l=0.15
X3 X a_207_413# VGND VNB sky130_fd_pr__nfet_01v8 ad=0.169 pd=1.82 as=0.101 ps=0.99 w=0.65 l=0.15
X4 a_207_413# a_27_413# VPWR VPB sky130_fd_pr__pfet_01v8_hvt ad=0.0609 pd=0.71 as=0.0714 ps=0.76 w=0.42 l=0.15
X5 VPWR A_N a_27_413# VPB sky130_fd_pr__pfet_01v8_hvt ad=0.0714 pd=0.76 as=0.109 ps=1.36 w=0.42 l=0.15
X6 VGND B a_297_47# VNB sky130_fd_pr__nfet_01v8 ad=0.101 pd=0.99 as=0.0504 ps=0.66 w=0.42 l=0.15
X7 a_27_413# A_N VGND VNB sky130_fd_pr__nfet_01v8 ad=0.109 pd=1.36 as=0.109 ps=1.36 w=0.42 l=0.15
.ends

.subckt sky130_fd_sc_hd__clkbuf_2 VGND VPWR A X VPB VNB
X0 VPWR A a_27_47# VPB sky130_fd_pr__pfet_01v8_hvt ad=0.162 pd=1.33 as=0.265 ps=2.53 w=1 l=0.15
X1 VPWR a_27_47# X VPB sky130_fd_pr__pfet_01v8_hvt ad=0.26 pd=2.52 as=0.135 ps=1.27 w=1 l=0.15
X2 VGND A a_27_47# VNB sky130_fd_pr__nfet_01v8 ad=0.0683 pd=0.745 as=0.111 ps=1.37 w=0.42 l=0.15
X3 X a_27_47# VPWR VPB sky130_fd_pr__pfet_01v8_hvt ad=0.135 pd=1.27 as=0.162 ps=1.33 w=1 l=0.15
X4 X a_27_47# VGND VNB sky130_fd_pr__nfet_01v8 ad=0.0567 pd=0.69 as=0.0683 ps=0.745 w=0.42 l=0.15
X5 VGND a_27_47# X VNB sky130_fd_pr__nfet_01v8 ad=0.109 pd=1.36 as=0.0567 ps=0.69 w=0.42 l=0.15
.ends

.subckt sky130_fd_sc_hd__dlygate4sd3_1 X A VPB VNB VGND VPWR
X0 VPWR A a_49_47# VPB sky130_fd_pr__pfet_01v8_hvt ad=0.0567 pd=0.69 as=0.109 ps=1.36 w=0.42 l=0.15
X1 VGND a_285_47# a_391_47# VNB sky130_fd_pr__nfet_01v8 ad=0.097 pd=0.975 as=0.109 ps=1.36 w=0.42 l=0.5
X2 X a_391_47# VPWR VPB sky130_fd_pr__pfet_01v8_hvt ad=0.26 pd=2.52 as=0.141 ps=1.33 w=1 l=0.15
X3 VGND A a_49_47# VNB sky130_fd_pr__nfet_01v8 ad=0.0567 pd=0.69 as=0.109 ps=1.36 w=0.42 l=0.15
X4 VPWR a_285_47# a_391_47# VPB sky130_fd_pr__pfet_01v8_hvt ad=0.141 pd=1.33 as=0.109 ps=1.36 w=0.42 l=0.5
X5 a_285_47# a_49_47# VGND VNB sky130_fd_pr__nfet_01v8 ad=0.109 pd=1.36 as=0.0567 ps=0.69 w=0.42 l=0.5
X6 a_285_47# a_49_47# VPWR VPB sky130_fd_pr__pfet_01v8_hvt ad=0.109 pd=1.36 as=0.0567 ps=0.69 w=0.42 l=0.5
X7 X a_391_47# VGND VNB sky130_fd_pr__nfet_01v8 ad=0.169 pd=1.82 as=0.097 ps=0.975 w=0.65 l=0.15
.ends

.subckt sky130_fd_sc_hd__dfxtp_1 Q CLK D VPB VNB VPWR VGND
X0 Q a_1059_315# VGND VNB sky130_fd_pr__nfet_01v8 ad=0.169 pd=1.82 as=0.0878 ps=0.92 w=0.65 l=0.15
X1 a_891_413# a_193_47# a_634_159# VNB sky130_fd_pr__nfet_01v8 ad=0.0684 pd=0.74 as=0.0989 ps=0.995 w=0.36 l=0.15
X2 a_561_413# a_27_47# a_466_413# VPB sky130_fd_pr__pfet_01v8_hvt ad=0.0767 pd=0.785 as=0.0683 ps=0.745 w=0.42 l=0.15
X3 VPWR CLK a_27_47# VPB sky130_fd_pr__pfet_01v8_hvt ad=0.0864 pd=0.91 as=0.166 ps=1.8 w=0.64 l=0.15
X4 Q a_1059_315# VPWR VPB sky130_fd_pr__pfet_01v8_hvt ad=0.26 pd=2.52 as=0.135 ps=1.27 w=1 l=0.15
X5 a_381_47# D VPWR VPB sky130_fd_pr__pfet_01v8_hvt ad=0.0578 pd=0.695 as=0.109 ps=1.36 w=0.42 l=0.15
X6 VGND a_634_159# a_592_47# VNB sky130_fd_pr__nfet_01v8 ad=0.121 pd=1.09 as=0.0696 ps=0.765 w=0.42 l=0.15
X7 VPWR a_891_413# a_1059_315# VPB sky130_fd_pr__pfet_01v8_hvt ad=0.135 pd=1.27 as=0.27 ps=2.54 w=1 l=0.15
X8 a_466_413# a_193_47# a_381_47# VPB sky130_fd_pr__pfet_01v8_hvt ad=0.0683 pd=0.745 as=0.0578 ps=0.695 w=0.42 l=0.15
X9 VPWR a_634_159# a_561_413# VPB sky130_fd_pr__pfet_01v8_hvt ad=0.179 pd=1.26 as=0.0767 ps=0.785 w=0.42 l=0.15
X10 a_634_159# a_466_413# VGND VNB sky130_fd_pr__nfet_01v8 ad=0.0989 pd=0.995 as=0.121 ps=1.09 w=0.64 l=0.15
X11 a_634_159# a_466_413# VPWR VPB sky130_fd_pr__pfet_01v8_hvt ad=0.109 pd=1.08 as=0.179 ps=1.26 w=0.75 l=0.15
X12 a_975_413# a_193_47# a_891_413# VPB sky130_fd_pr__pfet_01v8_hvt ad=0.0882 pd=0.84 as=0.0567 ps=0.69 w=0.42 l=0.15
X13 VGND a_1059_315# a_1017_47# VNB sky130_fd_pr__nfet_01v8 ad=0.109 pd=1.36 as=0.066 ps=0.745 w=0.42 l=0.15
X14 a_193_47# a_27_47# VGND VNB sky130_fd_pr__nfet_01v8 ad=0.109 pd=1.36 as=0.0567 ps=0.69 w=0.42 l=0.15
X15 a_891_413# a_27_47# a_634_159# VPB sky130_fd_pr__pfet_01v8_hvt ad=0.0567 pd=0.69 as=0.109 ps=1.08 w=0.42 l=0.15
X16 a_592_47# a_193_47# a_466_413# VNB sky130_fd_pr__nfet_01v8 ad=0.0696 pd=0.765 as=0.0621 ps=0.705 w=0.36 l=0.15
X17 a_1017_47# a_27_47# a_891_413# VNB sky130_fd_pr__nfet_01v8 ad=0.066 pd=0.745 as=0.0684 ps=0.74 w=0.36 l=0.15
X18 VPWR a_1059_315# a_975_413# VPB sky130_fd_pr__pfet_01v8_hvt ad=0.111 pd=1.37 as=0.0882 ps=0.84 w=0.42 l=0.15
X19 a_466_413# a_27_47# a_381_47# VNB sky130_fd_pr__nfet_01v8 ad=0.0621 pd=0.705 as=0.0813 ps=0.83 w=0.36 l=0.15
X20 a_193_47# a_27_47# VPWR VPB sky130_fd_pr__pfet_01v8_hvt ad=0.166 pd=1.8 as=0.0864 ps=0.91 w=0.64 l=0.15
X21 VGND a_891_413# a_1059_315# VNB sky130_fd_pr__nfet_01v8 ad=0.0878 pd=0.92 as=0.169 ps=1.82 w=0.65 l=0.15
X22 a_381_47# D VGND VNB sky130_fd_pr__nfet_01v8 ad=0.0813 pd=0.83 as=0.109 ps=1.36 w=0.42 l=0.15
X23 VGND CLK a_27_47# VNB sky130_fd_pr__nfet_01v8 ad=0.0567 pd=0.69 as=0.109 ps=1.36 w=0.42 l=0.15
.ends

.subckt sky130_fd_sc_hd__dfxtp_2 Q CLK D VPB VNB VPWR VGND
X0 Q a_1059_315# VGND VNB sky130_fd_pr__nfet_01v8 ad=0.0878 pd=0.92 as=0.0878 ps=0.92 w=0.65 l=0.15
X1 a_891_413# a_193_47# a_634_159# VNB sky130_fd_pr__nfet_01v8 ad=0.0684 pd=0.74 as=0.0989 ps=0.995 w=0.36 l=0.15
X2 VPWR a_1059_315# Q VPB sky130_fd_pr__pfet_01v8_hvt ad=0.26 pd=2.52 as=0.135 ps=1.27 w=1 l=0.15
X3 a_561_413# a_27_47# a_466_413# VPB sky130_fd_pr__pfet_01v8_hvt ad=0.0767 pd=0.785 as=0.0683 ps=0.745 w=0.42 l=0.15
X4 VPWR CLK a_27_47# VPB sky130_fd_pr__pfet_01v8_hvt ad=0.0864 pd=0.91 as=0.166 ps=1.8 w=0.64 l=0.15
X5 Q a_1059_315# VPWR VPB sky130_fd_pr__pfet_01v8_hvt ad=0.135 pd=1.27 as=0.135 ps=1.27 w=1 l=0.15
X6 a_381_47# D VPWR VPB sky130_fd_pr__pfet_01v8_hvt ad=0.0578 pd=0.695 as=0.109 ps=1.36 w=0.42 l=0.15
X7 VGND a_634_159# a_592_47# VNB sky130_fd_pr__nfet_01v8 ad=0.121 pd=1.09 as=0.0696 ps=0.765 w=0.42 l=0.15
X8 VGND a_1059_315# Q VNB sky130_fd_pr__nfet_01v8 ad=0.169 pd=1.82 as=0.0878 ps=0.92 w=0.65 l=0.15
X9 VPWR a_891_413# a_1059_315# VPB sky130_fd_pr__pfet_01v8_hvt ad=0.135 pd=1.27 as=0.27 ps=2.54 w=1 l=0.15
X10 a_466_413# a_193_47# a_381_47# VPB sky130_fd_pr__pfet_01v8_hvt ad=0.0683 pd=0.745 as=0.0578 ps=0.695 w=0.42 l=0.15
X11 VPWR a_634_159# a_561_413# VPB sky130_fd_pr__pfet_01v8_hvt ad=0.179 pd=1.26 as=0.0767 ps=0.785 w=0.42 l=0.15
X12 a_634_159# a_466_413# VGND VNB sky130_fd_pr__nfet_01v8 ad=0.0989 pd=0.995 as=0.121 ps=1.09 w=0.64 l=0.15
X13 a_634_159# a_466_413# VPWR VPB sky130_fd_pr__pfet_01v8_hvt ad=0.109 pd=1.08 as=0.179 ps=1.26 w=0.75 l=0.15
X14 a_975_413# a_193_47# a_891_413# VPB sky130_fd_pr__pfet_01v8_hvt ad=0.0882 pd=0.84 as=0.0567 ps=0.69 w=0.42 l=0.15
X15 VGND a_1059_315# a_1017_47# VNB sky130_fd_pr__nfet_01v8 ad=0.109 pd=1.36 as=0.066 ps=0.745 w=0.42 l=0.15
X16 a_193_47# a_27_47# VGND VNB sky130_fd_pr__nfet_01v8 ad=0.109 pd=1.36 as=0.0567 ps=0.69 w=0.42 l=0.15
X17 a_891_413# a_27_47# a_634_159# VPB sky130_fd_pr__pfet_01v8_hvt ad=0.0567 pd=0.69 as=0.109 ps=1.08 w=0.42 l=0.15
X18 a_592_47# a_193_47# a_466_413# VNB sky130_fd_pr__nfet_01v8 ad=0.0696 pd=0.765 as=0.0621 ps=0.705 w=0.36 l=0.15
X19 a_1017_47# a_27_47# a_891_413# VNB sky130_fd_pr__nfet_01v8 ad=0.066 pd=0.745 as=0.0684 ps=0.74 w=0.36 l=0.15
X20 VPWR a_1059_315# a_975_413# VPB sky130_fd_pr__pfet_01v8_hvt ad=0.111 pd=1.37 as=0.0882 ps=0.84 w=0.42 l=0.15
X21 a_466_413# a_27_47# a_381_47# VNB sky130_fd_pr__nfet_01v8 ad=0.0621 pd=0.705 as=0.0813 ps=0.83 w=0.36 l=0.15
X22 a_193_47# a_27_47# VPWR VPB sky130_fd_pr__pfet_01v8_hvt ad=0.166 pd=1.8 as=0.0864 ps=0.91 w=0.64 l=0.15
X23 VGND a_891_413# a_1059_315# VNB sky130_fd_pr__nfet_01v8 ad=0.0878 pd=0.92 as=0.169 ps=1.82 w=0.65 l=0.15
X24 a_381_47# D VGND VNB sky130_fd_pr__nfet_01v8 ad=0.0813 pd=0.83 as=0.109 ps=1.36 w=0.42 l=0.15
X25 VGND CLK a_27_47# VNB sky130_fd_pr__nfet_01v8 ad=0.0567 pd=0.69 as=0.109 ps=1.36 w=0.42 l=0.15
.ends

.subckt sky130_fd_sc_hd__and3_1 VGND VPWR X B A C VPB VNB
X0 VPWR A a_27_47# VPB sky130_fd_pr__pfet_01v8_hvt ad=0.0567 pd=0.69 as=0.109 ps=1.36 w=0.42 l=0.15
X1 VPWR C a_27_47# VPB sky130_fd_pr__pfet_01v8_hvt ad=0.142 pd=1.34 as=0.0662 ps=0.735 w=0.42 l=0.15
X2 a_181_47# B a_109_47# VNB sky130_fd_pr__nfet_01v8 ad=0.0441 pd=0.63 as=0.0441 ps=0.63 w=0.42 l=0.15
X3 VGND C a_181_47# VNB sky130_fd_pr__nfet_01v8 ad=0.132 pd=1.14 as=0.0441 ps=0.63 w=0.42 l=0.15
X4 a_27_47# B VPWR VPB sky130_fd_pr__pfet_01v8_hvt ad=0.0662 pd=0.735 as=0.0567 ps=0.69 w=0.42 l=0.15
X5 X a_27_47# VPWR VPB sky130_fd_pr__pfet_01v8_hvt ad=0.26 pd=2.52 as=0.142 ps=1.34 w=1 l=0.15
X6 X a_27_47# VGND VNB sky130_fd_pr__nfet_01v8 ad=0.169 pd=1.82 as=0.132 ps=1.14 w=0.65 l=0.15
X7 a_109_47# A a_27_47# VNB sky130_fd_pr__nfet_01v8 ad=0.0441 pd=0.63 as=0.109 ps=1.36 w=0.42 l=0.15
.ends

.subckt sky130_fd_sc_hd__a21o_1 VPWR VGND VPB VNB A2 A1 B1 X
X0 a_81_21# B1 VGND VNB sky130_fd_pr__nfet_01v8 ad=0.0894 pd=0.925 as=0.257 ps=1.44 w=0.65 l=0.15
X1 a_299_297# B1 a_81_21# VPB sky130_fd_pr__pfet_01v8_hvt ad=0.138 pd=1.27 as=0.26 ps=2.52 w=1 l=0.15
X2 VPWR a_81_21# X VPB sky130_fd_pr__pfet_01v8_hvt ad=0.26 pd=2.52 as=0.26 ps=2.52 w=1 l=0.15
X3 VPWR A1 a_299_297# VPB sky130_fd_pr__pfet_01v8_hvt ad=0.14 pd=1.28 as=0.138 ps=1.27 w=1 l=0.15
X4 VGND a_81_21# X VNB sky130_fd_pr__nfet_01v8 ad=0.257 pd=1.44 as=0.169 ps=1.82 w=0.65 l=0.15
X5 VGND A2 a_384_47# VNB sky130_fd_pr__nfet_01v8 ad=0.172 pd=1.83 as=0.091 ps=0.93 w=0.65 l=0.15
X6 a_299_297# A2 VPWR VPB sky130_fd_pr__pfet_01v8_hvt ad=0.265 pd=2.53 as=0.14 ps=1.28 w=1 l=0.15
X7 a_384_47# A1 a_81_21# VNB sky130_fd_pr__nfet_01v8 ad=0.091 pd=0.93 as=0.0894 ps=0.925 w=0.65 l=0.15
.ends

.subckt sky130_fd_sc_hd__nand3_1 VPB VNB VGND VPWR A B Y C
X0 VPWR B Y VPB sky130_fd_pr__pfet_01v8_hvt ad=0.165 pd=1.33 as=0.135 ps=1.27 w=1 l=0.15
X1 Y A VPWR VPB sky130_fd_pr__pfet_01v8_hvt ad=0.26 pd=2.52 as=0.165 ps=1.33 w=1 l=0.15
X2 a_193_47# B a_109_47# VNB sky130_fd_pr__nfet_01v8 ad=0.107 pd=0.98 as=0.0878 ps=0.92 w=0.65 l=0.15
X3 Y A a_193_47# VNB sky130_fd_pr__nfet_01v8 ad=0.169 pd=1.82 as=0.107 ps=0.98 w=0.65 l=0.15
X4 Y C VPWR VPB sky130_fd_pr__pfet_01v8_hvt ad=0.135 pd=1.27 as=0.26 ps=2.52 w=1 l=0.15
X5 a_109_47# C VGND VNB sky130_fd_pr__nfet_01v8 ad=0.0878 pd=0.92 as=0.169 ps=1.82 w=0.65 l=0.15
.ends

.subckt sky130_fd_sc_hd__a21oi_1 VPWR VGND VPB VNB A2 A1 B1 Y
X0 a_199_47# A1 Y VNB sky130_fd_pr__nfet_01v8 ad=0.0959 pd=0.945 as=0.091 ps=0.93 w=0.65 l=0.15
X1 a_113_297# A2 VPWR VPB sky130_fd_pr__pfet_01v8_hvt ad=0.265 pd=2.53 as=0.147 ps=1.29 w=1 l=0.15
X2 Y B1 VGND VNB sky130_fd_pr__nfet_01v8 ad=0.091 pd=0.93 as=0.172 ps=1.83 w=0.65 l=0.15
X3 VPWR A1 a_113_297# VPB sky130_fd_pr__pfet_01v8_hvt ad=0.147 pd=1.29 as=0.14 ps=1.28 w=1 l=0.15
X4 a_113_297# B1 Y VPB sky130_fd_pr__pfet_01v8_hvt ad=0.14 pd=1.28 as=0.265 ps=2.53 w=1 l=0.15
X5 VGND A2 a_199_47# VNB sky130_fd_pr__nfet_01v8 ad=0.172 pd=1.83 as=0.0959 ps=0.945 w=0.65 l=0.15
.ends

.subckt sky130_fd_sc_hd__clkbuf_4 VGND VPWR A X VPB VNB
X0 VPWR A a_27_47# VPB sky130_fd_pr__pfet_01v8_hvt ad=0.165 pd=1.33 as=0.265 ps=2.53 w=1 l=0.15
X1 VGND a_27_47# X VNB sky130_fd_pr__nfet_01v8 ad=0.122 pd=1.42 as=0.0588 ps=0.7 w=0.42 l=0.15
X2 VGND a_27_47# X VNB sky130_fd_pr__nfet_01v8 ad=0.0588 pd=0.7 as=0.0588 ps=0.7 w=0.42 l=0.15
X3 X a_27_47# VPWR VPB sky130_fd_pr__pfet_01v8_hvt ad=0.14 pd=1.28 as=0.14 ps=1.28 w=1 l=0.15
X4 X a_27_47# VGND VNB sky130_fd_pr__nfet_01v8 ad=0.0588 pd=0.7 as=0.0588 ps=0.7 w=0.42 l=0.15
X5 VGND A a_27_47# VNB sky130_fd_pr__nfet_01v8 ad=0.0703 pd=0.755 as=0.111 ps=1.37 w=0.42 l=0.15
X6 VPWR a_27_47# X VPB sky130_fd_pr__pfet_01v8_hvt ad=0.3 pd=2.6 as=0.14 ps=1.28 w=1 l=0.15
X7 X a_27_47# VGND VNB sky130_fd_pr__nfet_01v8 ad=0.0588 pd=0.7 as=0.0703 ps=0.755 w=0.42 l=0.15
X8 X a_27_47# VPWR VPB sky130_fd_pr__pfet_01v8_hvt ad=0.14 pd=1.28 as=0.165 ps=1.33 w=1 l=0.15
X9 VPWR a_27_47# X VPB sky130_fd_pr__pfet_01v8_hvt ad=0.14 pd=1.28 as=0.14 ps=1.28 w=1 l=0.15
.ends

.subckt sky130_fd_sc_hd__o21ai_1 VGND VPWR A2 B1 Y A1 VPB VNB
X0 Y A2 a_109_297# VPB sky130_fd_pr__pfet_01v8_hvt ad=0.174 pd=1.39 as=0.105 ps=1.21 w=1 l=0.15
X1 VPWR B1 Y VPB sky130_fd_pr__pfet_01v8_hvt ad=0.182 pd=1.92 as=0.174 ps=1.39 w=0.7 l=0.15
X2 a_27_47# A2 VGND VNB sky130_fd_pr__nfet_01v8 ad=0.0878 pd=0.92 as=0.107 ps=0.98 w=0.65 l=0.15
X3 Y B1 a_27_47# VNB sky130_fd_pr__nfet_01v8 ad=0.169 pd=1.82 as=0.0878 ps=0.92 w=0.65 l=0.15
X4 a_109_297# A1 VPWR VPB sky130_fd_pr__pfet_01v8_hvt ad=0.105 pd=1.21 as=0.26 ps=2.52 w=1 l=0.15
X5 VGND A1 a_27_47# VNB sky130_fd_pr__nfet_01v8 ad=0.107 pd=0.98 as=0.169 ps=1.82 w=0.65 l=0.15
.ends

.subckt counter VGND VPWR clk_i cnt_o[0] cnt_o[1] cnt_o[2] rst_n_i
XFILLER_0_27_93 VGND VPWR VPWR VGND sky130_ef_sc_hd__decap_12
XFILLER_0_43_81 VGND VPWR VPWR VGND sky130_ef_sc_hd__decap_12
XFILLER_0_7_81 VGND VPWR VPWR VGND sky130_ef_sc_hd__decap_12
XFILLER_0_55_317 VGND VPWR VPWR VGND sky130_ef_sc_hd__decap_12
XFILLER_0_23_225 VGND VPWR VPWR VGND sky130_ef_sc_hd__decap_12
XFILLER_0_63_361 VPWR VGND VPWR VGND sky130_fd_sc_hd__decap_3
XFILLER_0_48_15 VGND VPWR VPWR VGND sky130_ef_sc_hd__decap_12
XFILLER_0_3_39 VGND VPWR VPWR VGND sky130_ef_sc_hd__decap_12
XFILLER_0_13_51 VGND VPWR VPWR VGND sky130_fd_sc_hd__decap_4
XFILLER_0_58_133 VPWR VGND VPWR VGND sky130_fd_sc_hd__decap_6
XFILLER_0_58_177 VGND VPWR VPWR VGND sky130_ef_sc_hd__decap_12
XPHY_EDGE_ROW_19_Left_83 VPWR VGND VPWR VGND sky130_fd_sc_hd__decap_3
XFILLER_0_52_309 VGND VPWR VPWR VGND sky130_ef_sc_hd__decap_12
XFILLER_0_45_361 VGND VPWR VPWR VGND sky130_ef_sc_hd__decap_12
XFILLER_0_37_317 VGND VPWR VPWR VGND sky130_ef_sc_hd__decap_12
XFILLER_0_18_29 VGND VPWR VPWR VGND sky130_ef_sc_hd__decap_12
XFILLER_0_55_125 VGND VPWR VPWR VGND sky130_ef_sc_hd__decap_12
XFILLER_0_11_217 VPWR VGND VPWR VGND sky130_fd_sc_hd__decap_6
XFILLER_0_55_169 VGND VPWR VPWR VGND sky130_ef_sc_hd__decap_12
XFILLER_0_59_69 VGND VPWR VPWR VGND sky130_ef_sc_hd__decap_12
XFILLER_0_6_233 VGND VPWR VPWR VGND sky130_ef_sc_hd__decap_12
XFILLER_0_6_277 VGND VPWR VPWR VGND sky130_ef_sc_hd__decap_12
XFILLER_0_19_317 VGND VPWR VPWR VGND sky130_ef_sc_hd__decap_12
XFILLER_0_27_361 VGND VPWR VPWR VGND sky130_ef_sc_hd__decap_12
XFILLER_0_34_309 VGND VPWR VPWR VGND sky130_ef_sc_hd__decap_12
XPHY_EDGE_ROW_4_Left_68 VPWR VGND VPWR VGND sky130_fd_sc_hd__decap_3
XFILLER_0_37_125 VGND VPWR VPWR VGND sky130_ef_sc_hd__decap_12
XFILLER_0_37_169 VGND VPWR VPWR VGND sky130_ef_sc_hd__decap_12
XFILLER_0_29_39 VGND VPWR VPWR VGND sky130_ef_sc_hd__decap_12
XFILLER_0_0_29 VGND VPWR VPWR VGND sky130_ef_sc_hd__decap_12
XFILLER_0_61_15 VGND VPWR VPWR VGND sky130_ef_sc_hd__decap_12
XFILLER_0_45_27 VGND VPWR VPWR VGND sky130_ef_sc_hd__decap_12
XFILLER_0_9_27 VGND VPWR VPWR VGND sky130_ef_sc_hd__decap_12
XFILLER_0_16_309 VGND VPWR VPWR VGND sky130_ef_sc_hd__decap_12
XFILLER_0_3_225 VGND VPWR VPWR VGND sky130_ef_sc_hd__decap_12
XFILLER_0_10_41 VGND VPWR VPWR VGND sky130_ef_sc_hd__decap_12
XFILLER_0_10_85 VGND VPWR VPWR VGND sky130_ef_sc_hd__decap_12
XFILLER_0_51_161 VPWR VGND VPWR VGND sky130_fd_sc_hd__decap_6
XFILLER_0_19_125 VGND VPWR VPWR VGND sky130_ef_sc_hd__decap_12
XFILLER_0_59_261 VGND VPWR VPWR VGND sky130_ef_sc_hd__decap_12
XFILLER_0_35_93 VGND VPWR VPWR VGND sky130_ef_sc_hd__decap_12
XFILLER_0_19_169 VGND VPWR VPWR VGND sky130_ef_sc_hd__decap_12
XFILLER_0_30_301 VPWR VGND VPWR VGND sky130_fd_sc_hd__decap_6
XFILLER_0_51_81 VGND VPWR VPWR VGND sky130_ef_sc_hd__decap_12
XFILLER_0_30_345 VGND VPWR VPWR VGND sky130_ef_sc_hd__decap_12
XFILLER_0_40_109 VGND VPWR VPWR VGND sky130_ef_sc_hd__decap_12
XFILLER_0_56_15 VGND VPWR VPWR VGND sky130_ef_sc_hd__decap_12
XFILLER_0_48_209 VGND VPWR VPWR VGND sky130_ef_sc_hd__decap_12
XFILLER_0_12_301 VPWR VGND VPWR VGND sky130_fd_sc_hd__decap_6
XFILLER_0_21_51 VGND VPWR VPWR VGND sky130_fd_sc_hd__decap_4
XFILLER_0_56_253 VGND VPWR VPWR VGND sky130_ef_sc_hd__decap_12
XFILLER_0_12_345 VGND VPWR VPWR VGND sky130_ef_sc_hd__decap_12
XFILLER_0_34_3 VGND VPWR VPWR VGND sky130_ef_sc_hd__decap_12
XFILLER_0_7_361 VGND VPWR VPWR VGND sky130_ef_sc_hd__decap_12
XFILLER_0_15_161 VPWR VGND VPWR VGND sky130_fd_sc_hd__decap_6
XFILLER_0_22_109 VGND VPWR VPWR VGND sky130_ef_sc_hd__decap_12
XFILLER_0_30_153 VGND VPWR VPWR VGND sky130_fd_sc_hd__decap_4
XFILLER_0_62_289 VGND VPWR VPWR VGND sky130_ef_sc_hd__decap_12
XFILLER_0_62_245 VPWR VGND VPWR VGND sky130_fd_sc_hd__decap_6
XFILLER_0_26_29 VGND VPWR VPWR VGND sky130_ef_sc_hd__decap_12
XFILLER_0_30_186 VPWR VGND VPWR VGND sky130_fd_sc_hd__decap_8
XFILLER_0_30_197 VGND VPWR VPWR VGND sky130_ef_sc_hd__decap_12
XPHY_EDGE_ROW_7_Left_71 VPWR VGND VPWR VGND sky130_fd_sc_hd__decap_3
XFILLER_0_38_253 VGND VPWR VPWR VGND sky130_ef_sc_hd__decap_12
XFILLER_0_12_153 VGND VPWR VPWR VGND sky130_ef_sc_hd__decap_12
XFILLER_0_44_289 VGND VPWR VPWR VGND sky130_ef_sc_hd__decap_12
XFILLER_0_44_245 VPWR VGND VPWR VGND sky130_fd_sc_hd__decap_6
XFILLER_0_12_197 VGND VPWR VPWR VGND sky130_ef_sc_hd__decap_12
XPHY_EDGE_ROW_33_Left_97 VPWR VGND VPWR VGND sky130_fd_sc_hd__decap_3
XFILLER_0_53_27 VGND VPWR VPWR VGND sky130_ef_sc_hd__decap_12
XFILLER_0_37_39 VGND VPWR VPWR VGND sky130_ef_sc_hd__decap_12
XFILLER_0_26_245 VPWR VGND VPWR VGND sky130_fd_sc_hd__decap_6
XFILLER_0_26_289 VGND VPWR VPWR VGND sky130_ef_sc_hd__decap_12
XFILLER_0_41_237 VGND VPWR VPWR VGND sky130_ef_sc_hd__decap_12
XFILLER_0_49_337 VGND VPWR VPWR VGND sky130_ef_sc_hd__decap_12
XFILLER_0_43_93 VGND VPWR VPWR VGND sky130_ef_sc_hd__decap_12
XFILLER_0_7_93 VGND VPWR VPWR VGND sky130_ef_sc_hd__decap_12
XFILLER_0_55_329 VPWR VGND VPWR VGND sky130_fd_sc_hd__decap_6
XFILLER_0_2_109 VGND VPWR VPWR VGND sky130_ef_sc_hd__decap_12
XFILLER_0_23_237 VGND VPWR VPWR VGND sky130_ef_sc_hd__decap_12
XFILLER_0_31_281 VGND VPWR VPWR VGND sky130_ef_sc_hd__decap_12
XFILLER_0_58_189 VPWR VGND VPWR VGND sky130_fd_sc_hd__decap_6
XFILLER_0_37_329 VPWR VGND VPWR VGND sky130_fd_sc_hd__decap_6
XFILLER_0_60_321 VGND VPWR VPWR VGND sky130_ef_sc_hd__decap_12
XFILLER_0_60_365 VGND VPWR VPWR VGND sky130_ef_sc_hd__decap_12
XFILLER_0_45_373 VPWR VGND VPWR VGND sky130_fd_sc_hd__decap_6
XFILLER_0_13_281 VGND VPWR VPWR VGND sky130_ef_sc_hd__decap_12
XFILLER_0_34_29 VGND VPWR VPWR VGND sky130_ef_sc_hd__decap_12
XFILLER_0_55_137 VGND VPWR VPWR VGND sky130_ef_sc_hd__decap_12
XFILLER_0_59_15 VGND VPWR VPWR VGND sky130_ef_sc_hd__decap_12
XFILLER_0_63_181 VGND VPWR VPWR VGND sky130_ef_sc_hd__decap_12
XPHY_EDGE_ROW_20_Left_84 VPWR VGND VPWR VGND sky130_fd_sc_hd__decap_3
XFILLER_0_19_329 VPWR VGND VPWR VGND sky130_fd_sc_hd__decap_6
XFILLER_0_6_245 VPWR VGND VPWR VGND sky130_fd_sc_hd__decap_6
XFILLER_0_6_289 VGND VPWR VPWR VGND sky130_ef_sc_hd__decap_12
XFILLER_0_27_373 VPWR VGND VPWR VGND sky130_fd_sc_hd__decap_6
XFILLER_0_42_365 VGND VPWR VPWR VGND sky130_ef_sc_hd__decap_12
XFILLER_0_42_321 VGND VPWR VPWR VGND sky130_ef_sc_hd__decap_12
XPHY_EDGE_ROW_12_Right_12 VPWR VGND VPWR VGND sky130_fd_sc_hd__decap_3
XFILLER_0_49_81 VGND VPWR VPWR VGND sky130_ef_sc_hd__decap_12
XPHY_EDGE_ROW_21_Right_21 VPWR VGND VPWR VGND sky130_fd_sc_hd__decap_3
XFILLER_0_37_137 VGND VPWR VPWR VGND sky130_ef_sc_hd__decap_12
XPHY_EDGE_ROW_30_Right_30 VPWR VGND VPWR VGND sky130_fd_sc_hd__decap_3
XFILLER_0_45_181 VGND VPWR VPWR VGND sky130_ef_sc_hd__decap_12
XFILLER_0_61_27 VGND VPWR VPWR VGND sky130_ef_sc_hd__decap_12
XFILLER_0_45_39 VGND VPWR VPWR VGND sky130_ef_sc_hd__decap_12
XFILLER_0_9_39 VGND VPWR VPWR VGND sky130_ef_sc_hd__decap_12
XFILLER_0_24_321 VGND VPWR VPWR VGND sky130_ef_sc_hd__decap_12
XFILLER_0_3_237 VGND VPWR VPWR VGND sky130_ef_sc_hd__decap_12
XFILLER_0_10_53 VGND VPWR VPWR VGND sky130_ef_sc_hd__decap_12
XFILLER_0_10_97 VGND VPWR VPWR VGND sky130_ef_sc_hd__decap_12
XFILLER_0_24_365 VGND VPWR VPWR VGND sky130_ef_sc_hd__decap_12
XFILLER_0_19_51 VGND VPWR VPWR VGND sky130_fd_sc_hd__decap_4
XFILLER_0_19_137 VGND VPWR VPWR VGND sky130_ef_sc_hd__decap_12
XFILLER_0_59_273 VPWR VGND VPWR VGND sky130_fd_sc_hd__decap_6
XFILLER_0_51_93 VGND VPWR VPWR VGND sky130_ef_sc_hd__decap_12
XFILLER_0_30_357 VPWR VGND VPWR VGND sky130_fd_sc_hd__decap_6
XFILLER_0_56_221 VGND VPWR VPWR VGND sky130_ef_sc_hd__decap_12
XFILLER_0_56_265 VGND VPWR VPWR VGND sky130_ef_sc_hd__decap_12
XFILLER_0_24_173 VPWR VGND VPWR VGND sky130_fd_sc_hd__decap_3
XFILLER_0_12_357 VPWR VGND VPWR VGND sky130_fd_sc_hd__decap_6
XFILLER_0_1_51 VGND VPWR VPWR VGND sky130_fd_sc_hd__decap_4
XFILLER_0_27_3 VGND VPWR VPWR VGND sky130_ef_sc_hd__decap_12
XFILLER_0_7_373 VPWR VGND VPWR VGND sky130_fd_sc_hd__decap_6
XFILLER_0_30_121 VGND VPWR VPWR VGND sky130_ef_sc_hd__decap_12
XPHY_EDGE_ROW_42_Left_106 VPWR VGND VPWR VGND sky130_fd_sc_hd__decap_3
XPHY_EDGE_ROW_51_Left_115 VPWR VGND VPWR VGND sky130_fd_sc_hd__decap_3
XFILLER_0_42_29 VGND VPWR VPWR VGND sky130_ef_sc_hd__decap_12
XFILLER_0_38_265 VGND VPWR VPWR VGND sky130_ef_sc_hd__decap_12
XFILLER_0_38_221 VGND VPWR VPWR VGND sky130_ef_sc_hd__decap_12
XFILLER_0_6_29 VGND VPWR VPWR VGND sky130_ef_sc_hd__decap_12
XPHY_EDGE_ROW_60_Left_124 VPWR VGND VPWR VGND sky130_fd_sc_hd__decap_3
XFILLER_0_16_41 VGND VPWR VPWR VGND sky130_ef_sc_hd__decap_12
XFILLER_0_16_85 VGND VPWR VPWR VGND sky130_ef_sc_hd__decap_12
XFILLER_0_29_221 VPWR VGND VPWR VGND sky130_fd_sc_hd__decap_3
XFILLER_0_4_321 VGND VPWR VPWR VGND sky130_ef_sc_hd__decap_12
XFILLER_0_4_365 VGND VPWR VPWR VGND sky130_ef_sc_hd__decap_12
XPHY_EDGE_ROW_6_Right_6 VPWR VGND VPWR VGND sky130_fd_sc_hd__decap_3
XFILLER_0_12_121 VGND VPWR VPWR VGND sky130_ef_sc_hd__decap_12
XFILLER_0_12_165 VGND VPWR VPWR VGND sky130_ef_sc_hd__decap_12
XFILLER_0_57_81 VGND VPWR VPWR VGND sky130_ef_sc_hd__decap_12
XFILLER_0_7_181 VGND VPWR VPWR VGND sky130_ef_sc_hd__decap_12
XFILLER_0_53_39 VGND VPWR VPWR VGND sky130_ef_sc_hd__decap_12
XPHY_EDGE_ROW_59_Right_59 VPWR VGND VPWR VGND sky130_fd_sc_hd__decap_3
XFILLER_0_41_249 VGND VPWR VPWR VGND sky130_ef_sc_hd__decap_12
XFILLER_0_41_205 VGND VPWR VPWR VGND sky130_ef_sc_hd__decap_12
XFILLER_0_27_51 VGND VPWR VPWR VGND sky130_fd_sc_hd__decap_4
XFILLER_0_49_349 VGND VPWR VPWR VGND sky130_ef_sc_hd__decap_12
XFILLER_0_49_305 VGND VPWR VPWR VGND sky130_ef_sc_hd__decap_12
XFILLER_0_23_205 VGND VPWR VPWR VGND sky130_ef_sc_hd__decap_12
XFILLER_0_23_249 VGND VPWR VPWR VGND sky130_ef_sc_hd__decap_12
XFILLER_0_31_293 VGND VPWR VPWR VGND sky130_ef_sc_hd__decap_12
XFILLER_0_49_113 VGND VPWR VPWR VGND sky130_ef_sc_hd__decap_12
XFILLER_0_60_333 VGND VPWR VPWR VGND sky130_ef_sc_hd__decap_12
XFILLER_0_13_293 VGND VPWR VPWR VGND sky130_ef_sc_hd__decap_12
XFILLER_0_55_149 VGND VPWR VPWR VGND sky130_ef_sc_hd__decap_12
XFILLER_0_55_105 VPWR VGND VPWR VGND sky130_fd_sc_hd__decap_6
XFILLER_0_50_29 VGND VPWR VPWR VGND sky130_ef_sc_hd__decap_12
XFILLER_0_59_27 VGND VPWR VPWR VGND sky130_ef_sc_hd__decap_12
XFILLER_0_63_193 VPWR VGND VPWR VGND sky130_fd_sc_hd__decap_3
XFILLER_0_24_41 VGND VPWR VPWR VGND sky130_ef_sc_hd__decap_12
XFILLER_0_24_85 VGND VPWR VPWR VGND sky130_ef_sc_hd__decap_12
XFILLER_0_42_333 VGND VPWR VPWR VGND sky130_ef_sc_hd__decap_12
XFILLER_0_57_3 VGND VPWR VPWR VGND sky130_ef_sc_hd__decap_12
XFILLER_0_49_93 VGND VPWR VPWR VGND sky130_ef_sc_hd__decap_12
XFILLER_0_37_149 VGND VPWR VPWR VGND sky130_ef_sc_hd__decap_12
XFILLER_0_37_105 VPWR VGND VPWR VGND sky130_fd_sc_hd__decap_6
XFILLER_0_60_141 VGND VPWR VPWR VGND sky130_ef_sc_hd__decap_12
XFILLER_0_45_193 VGND VPWR VPWR VGND sky130_ef_sc_hd__decap_12
XFILLER_0_61_39 VGND VPWR VPWR VGND sky130_ef_sc_hd__decap_12
XFILLER_0_3_205 VGND VPWR VPWR VGND sky130_ef_sc_hd__decap_12
XFILLER_0_3_249 VGND VPWR VPWR VGND sky130_ef_sc_hd__decap_12
XFILLER_0_24_333 VGND VPWR VPWR VGND sky130_ef_sc_hd__decap_12
XFILLER_0_10_65 VGND VPWR VPWR VGND sky130_ef_sc_hd__decap_12
XFILLER_0_35_51 VGND VPWR VPWR VGND sky130_fd_sc_hd__decap_4
XFILLER_0_19_105 VPWR VGND VPWR VGND sky130_fd_sc_hd__decap_6
XFILLER_0_19_149 VGND VPWR VPWR VGND sky130_ef_sc_hd__decap_12
XFILLER_0_42_141 VGND VPWR VPWR VGND sky130_ef_sc_hd__decap_12
XFILLER_0_56_233 VGND VPWR VPWR VGND sky130_ef_sc_hd__decap_12
XFILLER_0_56_277 VGND VPWR VPWR VGND sky130_ef_sc_hd__decap_12
XFILLER_0_24_141 VGND VPWR VPWR VGND sky130_ef_sc_hd__decap_12
XFILLER_0_30_133 VPWR VGND VPWR VGND sky130_fd_sc_hd__decap_6
XFILLER_0_38_277 VGND VPWR VPWR VGND sky130_ef_sc_hd__decap_12
XFILLER_0_38_233 VGND VPWR VPWR VGND sky130_ef_sc_hd__decap_12
XFILLER_0_53_225 VGND VPWR VPWR VGND sky130_ef_sc_hd__decap_12
XFILLER_0_16_53 VGND VPWR VPWR VGND sky130_ef_sc_hd__decap_12